data_image0
_chemical_formula_structural       O2CaO2TiCaO2TiSiO
_chemical_formula_sum              "O7 Ca2 Ti2 Si1"
_cell_length_a       5.342977236648741
_cell_length_b       5.872084278073622
_cell_length_c       6.72613000869751
_cell_angle_alpha    70.83162253846658
_cell_angle_beta     78.70381166735335
_cell_angle_gamma    68.34264552000926

_space_group_name_H-M_alt    "P 1"
_space_group_IT_number       1

loop_
  _space_group_symop_operation_xyz
  'x, y, z'

loop_
  _atom_site_type_symbol
  _atom_site_label
  _atom_site_symmetry_multiplicity
  _atom_site_fract_x
  _atom_site_fract_y
  _atom_site_fract_z
  _atom_site_occupancy
  O   O1        1.0  0.6564076307315515  0.11296407775382922  0.2796154974262147  1.0000
  O   O2        1.0  0.28613439422541986  0.8803394185827652  0.527138313792534  1.0000
  Ca  Ca1       1.0  0.07167195946142882  0.7907688591053772  0.32579447100575176  1.0000
  O   O3        1.0  0.4602353274826413  0.11440490159416218  0.6847074108986122  1.0000
  O   O4        1.0  0.5443058843032753  0.4680974728428921  0.8862123452775126  1.0000
  Ti  Ti1       1.0  0.6009264163672083  0.10913591677522982  0.9511449949524368  1.0000
  Ca  Ca2       1.0  0.807553218125268  0.47974051387506256  0.12312466688948698  1.0000
  O   O5        1.0  0.1304691248613945  0.38569765197751005  0.353448197583912  1.0000
  O   O6        1.0  0.43172888520976554  0.8409897517051708  0.09324085465782984  1.0000
  Ti  Ti2       1.0  0.31753472254494775  0.8047933907033955  0.8395193516830456  1.0000
  Si  Si1       1.0  0.3834291864100051  0.13437636311048295  0.4502596047678648  1.0000
  O   O7        1.0  0.9607887637492386  0.8415917470804872  0.969131815705652  1.0000
