data_image0
_chemical_formula_structural       OSiCaO
_chemical_formula_sum              "O2 Si1 Ca1"
_cell_length_a       3.487917891825896
_cell_length_b       3.49788346451687
_cell_length_c       6.037477970123291
_cell_angle_alpha    73.35708509498042
_cell_angle_beta     73.33976304015935
_cell_angle_gamma    60.46404452351947

_space_group_name_H-M_alt    "P 1"
_space_group_IT_number       1

loop_
  _space_group_symop_operation_xyz
  'x, y, z'

loop_
  _atom_site_type_symbol
  _atom_site_label
  _atom_site_symmetry_multiplicity
  _atom_site_fract_x
  _atom_site_fract_y
  _atom_site_fract_z
  _atom_site_occupancy
  O   O1        1.0  0.04128119251882073  0.2901320479633981  0.5037194357685993  1.0000
  Si  Si1       1.0  0.943539026992939  0.19295960224406514  0.7964305149960171  1.0000
  Ca  Ca1       1.0  0.4440413111085481  0.6932395329883382  0.2964069329212349  1.0000
  O   O2        1.0  0.8467044986771186  0.09634160678205125  0.08909367282300307  1.0000
