data_image0
_chemical_formula_structural       CaTiOSi
_chemical_formula_sum              "Ca1 Ti1 O1 Si1"
_cell_length_a       3.8507143933787527
_cell_length_b       3.853913624657623
_cell_length_c       6.389084815979004
_cell_angle_alpha    72.51833095720045
_cell_angle_beta     72.5188834887196
_cell_angle_gamma    60.08225937436931

_space_group_name_H-M_alt    "P 1"
_space_group_IT_number       1

loop_
  _space_group_symop_operation_xyz
  'x, y, z'

loop_
  _atom_site_type_symbol
  _atom_site_label
  _atom_site_symmetry_multiplicity
  _atom_site_fract_x
  _atom_site_fract_y
  _atom_site_fract_z
  _atom_site_occupancy
  Ca  Ca1       1.0  0.8329136005577656  0.06057172136254472  0.23080222255874522  1.0000
  Ti  Ti1       1.0  0.02114773914688844  0.24932942600086658  0.6666034152037487  1.0000
  O   O1        1.0  0.12178877288969835  0.3498586731859607  0.3642525016636377  1.0000
  Si  Si1       1.0  0.6238942110637146  0.8515982139908174  0.8582810667214734  1.0000
