data_image0
_chemical_formula_structural       Ca2SiO2TiOSiO6
_chemical_formula_sum              "Ca2 Si2 O9 Ti1"
_cell_length_a       5.580032095192805
_cell_length_b       5.355163967205761
_cell_length_c       8.407604217529297
_cell_angle_alpha    81.43616083433345
_cell_angle_beta     86.59194979478967
_cell_angle_gamma    62.99137045832527

_space_group_name_H-M_alt    "P 1"
_space_group_IT_number       1

loop_
  _space_group_symop_operation_xyz
  'x, y, z'

loop_
  _atom_site_type_symbol
  _atom_site_label
  _atom_site_symmetry_multiplicity
  _atom_site_fract_x
  _atom_site_fract_y
  _atom_site_fract_z
  _atom_site_occupancy
  Ca  Ca1       1.0  0.4640460950129683  0.2813122016612731  0.02202739379526271  1.0000
  Ca  Ca2       1.0  0.17821961757322122  0.8938234556823438  0.2119598833308307  1.0000
  Si  Si1       1.0  0.34340259184447286  0.868799464079422  0.7799933589350893  1.0000
  O   O1        1.0  0.6715781282039137  0.6985269410575744  0.7448961486079235  1.0000
  O   O2        1.0  0.3023926204190668  0.9722722128346676  0.9546857547827269  1.0000
  Ti  Ti1       1.0  0.0008590322781410878  0.5508905733393546  0.6456378868221485  1.0000
  O   O3        1.0  0.1879291945550088  0.16252337792741822  0.6533103039536693  1.0000
  Si  Si2       1.0  0.8317284517864013  0.5766695840285334  0.23598951933783352  1.0000
  O   O4        1.0  0.0552155457053372  0.7623353444654786  0.46770965470234127  1.0000
  O   O5        1.0  0.22711022528063832  0.6316050284209501  0.7777925532101642  1.0000
  O   O6        1.0  0.7987857749859737  0.5950114973808472  0.4364824402359897  1.0000
  O   O7        1.0  0.7937958899818252  0.8838544033454853  0.14620280201709707  1.0000
  O   O8        1.0  0.1326779347759041  0.3389036290680955  0.20177389632942658  1.0000
  O   O9        1.0  0.5941190641943768  0.5025310620896084  0.1929639477587111  1.0000
