data_image0
_chemical_formula_structural       OSiTiOCaSiO6
_chemical_formula_sum              "O8 Si2 Ti1 Ca1"
_cell_length_a       5.645632697394538
_cell_length_b       5.643038353180892
_cell_length_c       5.644672393798828
_cell_angle_alpha    106.44928180045437
_cell_angle_beta     106.45586095235818
_cell_angle_gamma    115.55808516960366

_space_group_name_H-M_alt    "P 1"
_space_group_IT_number       1

loop_
  _space_group_symop_operation_xyz
  'x, y, z'

loop_
  _atom_site_type_symbol
  _atom_site_label
  _atom_site_symmetry_multiplicity
  _atom_site_fract_x
  _atom_site_fract_y
  _atom_site_fract_z
  _atom_site_occupancy
  O   O1        1.0  0.16039607253503807  0.9065182010853144  0.26872988865954994  1.0000
  Si  Si1       1.0  0.7864529038104305  0.8130317588581755  0.6314388791198321  1.0000
  Ti  Ti1       1.0  0.29108153690009064  0.3814450699069569  0.5949985946865326  1.0000
  O   O2        1.0  0.8777704452384423  0.023870257793369154  0.4862877491046321  1.0000
  Ca  Ca1       1.0  0.5592064316824308  0.06392895463997991  0.15296608455352723  1.0000
  Si  Si2       1.0  0.9915603699483788  0.5422500758310534  0.06842848869003275  1.0000
  O   O3        1.0  0.5727952072888655  0.45643023396816657  0.425279764086816  1.0000
  O   O4        1.0  0.5673531770899881  0.8169621438001611  0.7670920049823663  1.0000
  O   O5        1.0  0.047650888130841416  0.41195880394443757  0.29513750723581633  1.0000
  O   O6        1.0  0.19246386703360885  0.5178093771147143  0.9102370689990389  1.0000
  O   O7        1.0  0.6324096708613611  0.37877872167859944  0.8808518641590746  1.0000
  O   O8        1.0  0.1014006073986629  0.9139793989161603  0.8742426499068072  1.0000
