data_image0
_chemical_formula_structural       OCaOCaTi2O2Si2O6
_chemical_formula_sum              "O10 Ca2 Ti2 Si2"
_cell_length_a       5.503539526803239
_cell_length_b       5.50398916687525
_cell_length_c       7.106508731842041
_cell_angle_alpha    104.321140535816
_cell_angle_beta     104.27765323160703
_cell_angle_gamma    105.74181261392914

_space_group_name_H-M_alt    "P 1"
_space_group_IT_number       1

loop_
  _space_group_symop_operation_xyz
  'x, y, z'

loop_
  _atom_site_type_symbol
  _atom_site_label
  _atom_site_symmetry_multiplicity
  _atom_site_fract_x
  _atom_site_fract_y
  _atom_site_fract_z
  _atom_site_occupancy
  O   O1        1.0  0.6826411181623835  0.5304934833287556  0.16638008277467733  1.0000
  Ca  Ca1       1.0  0.08016006280243619  0.133140854093252  0.6659628153243625  1.0000
  O   O2        1.0  0.8206280930775567  0.3923290890419855  0.6662934965691383  1.0000
  Ca  Ca2       1.0  0.4231978039111359  0.789816055785035  0.16611259241770146  1.0000
  Ti  Ti1       1.0  0.7515012741724224  0.4615588804704862  0.41622983854465123  1.0000
  Ti  Ti2       1.0  0.7516930935844858  0.4613421211080948  0.9161908690108927  1.0000
  O   O3        1.0  0.6388929946354478  0.7753119493659153  0.532793612101668  1.0000
  O   O4        1.0  0.500869302767315  0.08412731683144703  0.8248178038029123  1.0000
  Si  Si1       1.0  0.43220356588534303  0.780840818035456  0.6663621649216244  1.0000
  Si  Si2       1.0  0.0709806031892247  0.14211294357093016  0.16630781478355972  1.0000
  O   O5        1.0  0.002223887902897311  0.8386524966142659  0.008035363936013451  1.0000
  O   O6        1.0  0.4378546927530986  0.5742511228927474  0.799922414697195  1.0000
  O   O7        1.0  0.8643445249179519  0.1477229905493014  0.29990298568615686  1.0000
  O   O8        1.0  0.0653434071060752  0.34856600577009295  0.032621616134232506  1.0000
  O   O9        1.0  0.3742370644382311  0.2110213968870133  0.3247358460395539  1.0000
  O   O10       1.0  0.1289361132149222  0.7120423577411008  0.5079305961946259  1.0000
