data_image0
_chemical_formula_structural       TiO2CaSiO3SiO2Ca
_chemical_formula_sum              "Ti1 O7 Ca2 Si2"
_cell_length_a       5.674757999020221
_cell_length_b       5.763622906277952
_cell_length_c       7.178399085998535
_cell_angle_alpha    101.30822055895419
_cell_angle_beta     107.49182292632392
_cell_angle_gamma    118.36486815150889

_space_group_name_H-M_alt    "P 1"
_space_group_IT_number       1

loop_
  _space_group_symop_operation_xyz
  'x, y, z'

loop_
  _atom_site_type_symbol
  _atom_site_label
  _atom_site_symmetry_multiplicity
  _atom_site_fract_x
  _atom_site_fract_y
  _atom_site_fract_z
  _atom_site_occupancy
  Ti  Ti1       1.0  0.9217085739926522  0.7366285490009642  0.9303846885446427  1.0000
  O   O1        1.0  0.2192377575049969  0.993188618878983  0.26823003623001185  1.0000
  O   O2        1.0  0.2288803593174481  0.980457119185796  0.845589771640431  1.0000
  Ca  Ca1       1.0  0.1314348331709992  0.3531401952883267  0.2739135463759675  1.0000
  Si  Si1       1.0  0.5612744216838201  0.17069930583503698  0.46507095358191614  1.0000
  O   O3        1.0  0.488531497970658  0.9700926553613293  0.6104249610911617  1.0000
  O   O4        1.0  0.8216678363233233  0.40341806629941623  0.012702134629644535  1.0000
  O   O5        1.0  0.8355911910246945  0.18137314143039387  0.4296586140520764  1.0000
  Si  Si2       1.0  0.5558957333647616  0.06048415813817137  0.8692057208872841  1.0000
  O   O6        1.0  0.6383221177077192  0.4932170776208687  0.5754334892060136  1.0000
  O   O7        1.0  0.6938258567526516  0.9020503860165587  0.9743436468096901  1.0000
  Ca  Ca2       1.0  0.9518408228126163  0.8640484150013129  0.4958396950699145  1.0000
