data_image0
_chemical_formula_structural       CaTiSi
_chemical_formula_sum              "Ca1 Ti1 Si1"
_cell_length_a       4.621899497009451
_cell_length_b       4.619881593496445
_cell_length_c       4.619253635406494
_cell_angle_alpha    60.05605690942869
_cell_angle_beta     60.05837859076488
_cell_angle_gamma    60.05875509296842

_space_group_name_H-M_alt    "P 1"
_space_group_IT_number       1

loop_
  _space_group_symop_operation_xyz
  'x, y, z'

loop_
  _atom_site_type_symbol
  _atom_site_label
  _atom_site_symmetry_multiplicity
  _atom_site_fract_x
  _atom_site_fract_y
  _atom_site_fract_z
  _atom_site_occupancy
  Ca  Ca1       1.0  0.41042225495413565  0.5187971891711194  0.32603786679496466  1.0000
  Ti  Ti1       1.0  0.9103292303220618  0.01933330277320505  0.8267742356053485  1.0000
  Si  Si1       1.0  0.1601016548197942  0.2688315212114832  0.07617236491971693  1.0000
