data_image0
_chemical_formula_structural       CaTiSiO
_chemical_formula_sum              "Ca1 Ti1 Si1 O1"
_cell_length_a       3.189112941017865
_cell_length_b       3.1916029205138914
_cell_length_c       7.10855770111084
_cell_angle_alpha    77.07109613091643
_cell_angle_beta     77.07565268056172
_cell_angle_gamma    60.06243704020763

_space_group_name_H-M_alt    "P 1"
_space_group_IT_number       1

loop_
  _space_group_symop_operation_xyz
  'x, y, z'

loop_
  _atom_site_type_symbol
  _atom_site_label
  _atom_site_symmetry_multiplicity
  _atom_site_fract_x
  _atom_site_fract_y
  _atom_site_fract_z
  _atom_site_occupancy
  Ca  Ca1       1.0  0.536519400528934  0.9649991462210215  0.7654652854670911  1.0000
  Ti  Ti1       1.0  0.001904888806517846  0.43066158595648757  0.36897216197360794  1.0000
  Si  Si1       1.0  0.7572083529485962  0.1857325248955538  0.10292540533582986  1.0000
  O   O1        1.0  0.2726622388411766  0.7010531594252095  0.5568435437768113  1.0000
