data_image0
_chemical_formula_structural       TiSi2CaO2SiO5
_chemical_formula_sum              "Ti1 Si3 Ca1 O7"
_cell_length_a       5.117086936912086
_cell_length_b       5.113763262396082
_cell_length_c       8.041275978088379
_cell_angle_alpha    71.47549664785318
_cell_angle_beta     71.42385527964201
_cell_angle_gamma    59.91865486202908

_space_group_name_H-M_alt    "P 1"
_space_group_IT_number       1

loop_
  _space_group_symop_operation_xyz
  'x, y, z'

loop_
  _atom_site_type_symbol
  _atom_site_label
  _atom_site_symmetry_multiplicity
  _atom_site_fract_x
  _atom_site_fract_y
  _atom_site_fract_z
  _atom_site_occupancy
  Ti  Ti1       1.0  0.3819697360521875  0.5886838795839984  0.9564946220523156  1.0000
  Si  Si1       1.0  0.17693871829124372  0.38768927394356106  0.5690121945450747  1.0000
  Si  Si2       1.0  0.8252470508613788  0.03678990445213863  0.6239456638191712  1.0000
  Ca  Ca1       1.0  0.6049820585980464  0.8140491501336122  0.28653779895755804  1.0000
  O   O1        1.0  0.5407806554768353  0.32514668000905134  0.49320628133372413  1.0000
  O   O2        1.0  0.3061996278247273  0.22531729156160787  0.07861649294004724  1.0000
  Si  Si3       1.0  0.03059472916502693  0.2395941702805574  0.008306667339620401  1.0000
  O   O3        1.0  0.9512416185093638  0.7518542151676669  0.49341843015591086  1.0000
  O   O4        1.0  0.017067038203121918  0.9074532323789163  0.07773325883136319  1.0000
  O   O5        1.0  0.11440363359312394  0.16233842287425715  0.49307988406459125  1.0000
  O   O6        1.0  0.6981500473546223  0.5156517468691363  0.07848464194605646  1.0000
  O   O7        1.0  0.10440082823646833  0.31469442803387276  0.7872226012444595  1.0000
