data_image0
_chemical_formula_structural       SiCaOTiSiTiO9Ca
_chemical_formula_sum              "Si2 Ca2 O10 Ti2"
_cell_length_a       5.181927000601087
_cell_length_b       5.335865513459526
_cell_length_c       8.48931884765625
_cell_angle_alpha    105.69875415423073
_cell_angle_beta     107.11612133596422
_cell_angle_gamma    104.39863505905062

_space_group_name_H-M_alt    "P 1"
_space_group_IT_number       1

loop_
  _space_group_symop_operation_xyz
  'x, y, z'

loop_
  _atom_site_type_symbol
  _atom_site_label
  _atom_site_symmetry_multiplicity
  _atom_site_fract_x
  _atom_site_fract_y
  _atom_site_fract_z
  _atom_site_occupancy
  Si  Si1       1.0  0.45399862769599875  0.2974125336805783  0.6961532564697281  1.0000
  Ca  Ca1       1.0  0.8132371872221724  0.8064213344425784  0.6225705161569163  1.0000
  O   O1        1.0  0.46808897465914034  0.8090203719530239  0.36425350667442674  1.0000
  Ti  Ti1       1.0  0.7773667556296798  0.17321464276915846  0.3868694766143066  1.0000
  Si  Si2       1.0  0.11024649327771806  0.6923322640891577  0.29345942445830836  1.0000
  Ti  Ti2       1.0  0.7734242752178414  0.006187150150685796  0.9882830090569829  1.0000
  O   O2        1.0  0.10369959556598143  0.16297356871032323  0.5828251498344803  1.0000
  O   O3        1.0  0.5487217947635161  0.08518892366456325  0.7918493348944222  1.0000
  O   O4        1.0  0.6254004996704245  0.3428801908254272  0.5643558793473592  1.0000
  O   O5        1.0  0.0009950027603675693  0.5643886450472765  0.4306490115648308  1.0000
  O   O6        1.0  0.9384429422194686  0.8996413705745211  0.2364624381423423  1.0000
  O   O7        1.0  0.5327671202620583  0.5975761491973729  0.855283442537508  1.0000
  O   O8        1.0  0.0011076712744992347  0.42232028196751464  0.10982508359290351  1.0000
  O   O9        1.0  0.5707496235863416  0.12078779062817925  0.16426526740584094  1.0000
  O   O10       1.0  0.052828904478324945  0.9878379485394191  0.9178005544032047  1.0000
  Ca  Ca2       1.0  0.4241052068785862  0.439837813742214  0.07118790273175962  1.0000
