data_image0
_chemical_formula_structural       CaTiO2SiOCaSiO2
_chemical_formula_sum              "Ca2 Ti1 O5 Si2"
_cell_length_a       3.3478388183299597
_cell_length_b       4.789066594413281
_cell_length_c       8.731152534484863
_cell_angle_alpha    81.88058137155933
_cell_angle_beta     86.96659282986643
_cell_angle_gamma    91.45661548394153

_space_group_name_H-M_alt    "P 1"
_space_group_IT_number       1

loop_
  _space_group_symop_operation_xyz
  'x, y, z'

loop_
  _atom_site_type_symbol
  _atom_site_label
  _atom_site_symmetry_multiplicity
  _atom_site_fract_x
  _atom_site_fract_y
  _atom_site_fract_z
  _atom_site_occupancy
  Ca  Ca1       1.0  0.8578121167010235  0.783704306189094  0.6992376435063398  1.0000
  Ti  Ti1       1.0  0.7497327072006712  0.2667290274792051  0.3468567761177658  1.0000
  O   O1        1.0  0.3439733071047786  0.42429805738417486  0.87226508510343  1.0000
  O   O2        1.0  0.8310458446435361  0.9705335932692902  0.9317070317852522  1.0000
  Si  Si1       1.0  0.2699917898265933  0.8683116267860757  0.3840903083354219  1.0000
  O   O3        1.0  0.39081120149669735  0.9665666836442854  0.5590842879063221  1.0000
  Ca  Ca2       1.0  0.3108884496357413  0.741620904447444  0.09290735700305724  1.0000
  Si  Si2       1.0  0.8335660187929369  0.3125051803168449  0.9303187238451449  1.0000
  O   O4        1.0  0.8039797541837415  0.3948144389770964  0.11001568008119421  1.0000
  O   O5        1.0  0.2550693797227584  0.5076267356681424  0.3924157124528032  1.0000
