data_image0
_chemical_formula_structural       OTiCaSiO2CaO2SiO2
_chemical_formula_sum              "O7 Ti1 Ca2 Si2"
_cell_length_a       5.423624154411101
_cell_length_b       5.420686905698278
_cell_length_c       7.69048547744751
_cell_angle_alpha    69.50632530480044
_cell_angle_beta     69.62859991371519
_cell_angle_gamma    60.183187469652715

_space_group_name_H-M_alt    "P 1"
_space_group_IT_number       1

loop_
  _space_group_symop_operation_xyz
  'x, y, z'

loop_
  _atom_site_type_symbol
  _atom_site_label
  _atom_site_symmetry_multiplicity
  _atom_site_fract_x
  _atom_site_fract_y
  _atom_site_fract_z
  _atom_site_occupancy
  O   O1        1.0  0.899799864164315  0.8143525938004436  0.19333948340609733  1.0000
  Ti  Ti1       1.0  0.7310778721489262  0.1101404374158388  0.3751738232514082  1.0000
  Ca  Ca1       1.0  0.44681937071514155  0.827886146439894  0.22326829895987327  1.0000
  Si  Si1       1.0  0.3099586402348298  0.6867343301021817  0.6448038471785106  1.0000
  O   O2        1.0  0.4369105575604323  0.4155923085479354  0.1926457485716487  1.0000
  O   O3        1.0  0.229873247954337  0.6119160717749063  0.8749927318071441  1.0000
  Ca  Ca2       1.0  0.014201067615383705  0.39397028323901756  0.5266367695714084  1.0000
  O   O4        1.0  0.5644279354072874  0.8022407461311202  0.5601562192850933  1.0000
  O   O5        1.0  0.42603068042682685  0.4024533419161601  0.5584841255578549  1.0000
  Si  Si2       1.0  0.15328374368876813  0.5322332656069331  0.10519407178934594  1.0000
  O   O6        1.0  0.03801250947157558  0.27740069220014235  0.1893768277769532  1.0000
  O   O7        1.0  0.027979692473146193  0.9404521127874708  0.556010852589539  1.0000
