data_image0
_chemical_formula_structural       CaSi2OTiO7
_chemical_formula_sum              "Ca1 Si2 O8 Ti1"
_cell_length_a       5.6342001907432655
_cell_length_b       5.63639066991101
_cell_length_c       5.638511657714844
_cell_angle_alpha    106.53285710305724
_cell_angle_beta     106.56631112790747
_cell_angle_gamma    115.42382998070393

_space_group_name_H-M_alt    "P 1"
_space_group_IT_number       1

loop_
  _space_group_symop_operation_xyz
  'x, y, z'

loop_
  _atom_site_type_symbol
  _atom_site_label
  _atom_site_symmetry_multiplicity
  _atom_site_fract_x
  _atom_site_fract_y
  _atom_site_fract_z
  _atom_site_occupancy
  Ca  Ca1       1.0  0.6534866594364435  0.502385788599071  0.6745484083270336  1.0000
  Si  Si1       1.0  0.1570207961507623  0.01209013573546127  0.6814627960764078  1.0000
  Si  Si2       1.0  0.4102847390585199  0.7634638173489687  0.17911678431714223  1.0000
  O   O1        1.0  0.5159895990547937  0.167808401372645  0.8757877462544651  1.0000
  Ti  Ti1       1.0  0.8715648764873647  0.20473441416636246  0.16040761641668883  1.0000
  O   O2        1.0  0.5932766683416338  0.7680321237106689  0.0017203171246221183  1.0000
  O   O3        1.0  0.39981329202192106  0.5815659764202863  0.35621588934009063  1.0000
  O   O4        1.0  0.9931590045753886  0.04587382903187171  0.8788033780267069  1.0000
  O   O5        1.0  0.05155873250627303  0.582288669367775  0.006857154368300852  1.0000
  O   O6        1.0  3.679971914594127e-05  0.6537962825603599  0.48013474278899454  1.0000
  O   O7        1.0  0.1180626158123292  0.16774421920679444  0.47801500061934094  1.0000
  O   O8        1.0  0.5976966493003575  0.1224153592436008  0.35045742180762746  1.0000
