data_image0
_chemical_formula_structural       OCaTiOSiOCaO3
_chemical_formula_sum              "O6 Ca2 Ti1 Si1"
_cell_length_a       5.270425732423572
_cell_length_b       5.27369308236039
_cell_length_c       5.277242183685303
_cell_angle_alpha    119.82221507447417
_cell_angle_beta     90.34714003249435
_cell_angle_gamma    119.99406056621206

_space_group_name_H-M_alt    "P 1"
_space_group_IT_number       1

loop_
  _space_group_symop_operation_xyz
  'x, y, z'

loop_
  _atom_site_type_symbol
  _atom_site_label
  _atom_site_symmetry_multiplicity
  _atom_site_fract_x
  _atom_site_fract_y
  _atom_site_fract_z
  _atom_site_occupancy
  O   O1        1.0  0.06001195375862151  0.30446688949685957  0.725969129167096  1.0000
  Ca  Ca1       1.0  0.021161003341399132  0.2791160700990615  0.18144003060739977  1.0000
  Ti  Ti1       1.0  0.7714318464185632  0.7826700911070864  0.4353938552759215  1.0000
  O   O2        1.0  0.5102073793818759  0.8379323565353628  0.22930445638942074  1.0000
  Si  Si1       1.0  0.2714634109728443  0.7826808835436112  0.9354093221060049  1.0000
  O   O3        1.0  0.003227179918189454  0.782625395133854  0.14565224032122343  1.0000
  Ca  Ca2       1.0  0.5218385603005172  0.28615063341339625  0.689392522588589  1.0000
  O   O4        1.0  0.5395655931076657  0.7826914281924343  0.7250744682325709  1.0000
  O   O5        1.0  0.4827396477964087  0.26089652963129367  0.14473949131636998  1.0000
  O   O6        1.0  0.03263590917088963  0.727504932369943  0.6414895766708665  1.0000
