data_image0
_chemical_formula_structural       SiCaTiO2
_chemical_formula_sum              "Si1 Ca1 Ti1 O2"
_cell_length_a       3.4879544397150632
_cell_length_b       3.4973154165501152
_cell_length_c       6.939730644226074
_cell_angle_alpha    104.46335708162161
_cell_angle_beta     104.399249067669
_cell_angle_gamma    89.98618535688232

_space_group_name_H-M_alt    "P 1"
_space_group_IT_number       1

loop_
  _space_group_symop_operation_xyz
  'x, y, z'

loop_
  _atom_site_type_symbol
  _atom_site_label
  _atom_site_symmetry_multiplicity
  _atom_site_fract_x
  _atom_site_fract_y
  _atom_site_fract_z
  _atom_site_occupancy
  Si  Si1       1.0  0.5150731487916194  0.07694081174936684  0.42610165223005325  1.0000
  Ca  Ca1       1.0  0.17300774158042123  0.7345373083701925  0.7435409980164835  1.0000
  Ti  Ti1       1.0  0.8498212798243813  0.41141882525445506  0.10100471517185132  1.0000
  O   O1        1.0  0.787069552832708  0.8486103485769162  0.9737390639554089  1.0000
  O   O2        1.0  0.2865337868313875  0.3481301908320446  0.9726676568640004  1.0000
