data_image0
_chemical_formula_structural       CaOCaTiO4SiO2Ti
_chemical_formula_sum              "Ca2 O7 Ti2 Si1"
_cell_length_a       3.6563264149029937
_cell_length_b       3.6588392531504055
_cell_length_c       11.168444633483887
_cell_angle_alpha    99.48197816178073
_cell_angle_beta     99.43114152709305
_cell_angle_gamma    90.03756167823366

_space_group_name_H-M_alt    "P 1"
_space_group_IT_number       1

loop_
  _space_group_symop_operation_xyz
  'x, y, z'

loop_
  _atom_site_type_symbol
  _atom_site_label
  _atom_site_symmetry_multiplicity
  _atom_site_fract_x
  _atom_site_fract_y
  _atom_site_fract_z
  _atom_site_occupancy
  Ca  Ca1       1.0  0.11358446914382385  0.7236890431108676  0.49274294473142416  1.0000
  O   O1        1.0  0.3992393400203238  0.513988736006745  0.06400185488146559  1.0000
  Ca  Ca2       1.0  0.3282793211055146  0.9415802608058494  0.9225250668449083  1.0000
  Ti  Ti1       1.0  0.7314166729754897  0.34312239829854907  0.7290946136744645  1.0000
  O   O2        1.0  0.046678305356969645  0.15681089171291146  0.3594228907334086  1.0000
  O   O3        1.0  0.7581372768918917  0.8701233377923011  0.7824624441439283  1.0000
  O   O4        1.0  0.8992496135171906  0.015093158593043984  0.06420928327233816  1.0000
  O   O5        1.0  0.5467509967086434  0.6556840610540979  0.35936997303933715  1.0000
  Si  Si1       1.0  0.9234351372681577  0.5386956527078949  0.11263085721873548  1.0000
  O   O6        1.0  0.6491985689572941  0.26016476355473656  0.5650996614982611  1.0000
  O   O7        1.0  0.2582718846313848  0.3704764830224625  0.7827213760639506  1.0000
  Ti  Ti2       1.0  0.5178498620817406  0.12459587075619218  0.30207430572035265  1.0000
