data_image0
_chemical_formula_structural       TiO4TiSiO2
_chemical_formula_sum              "Ti2 O6 Si1"
_cell_length_a       4.340212831437985
_cell_length_b       4.816459521821905
_cell_length_c       4.8152594566345215
_cell_angle_alpha    120.04642104597546
_cell_angle_beta     90.00378642923074
_cell_angle_gamma    90.00227012716859

_space_group_name_H-M_alt    "P 1"
_space_group_IT_number       1

loop_
  _space_group_symop_operation_xyz
  'x, y, z'

loop_
  _atom_site_type_symbol
  _atom_site_label
  _atom_site_symmetry_multiplicity
  _atom_site_fract_x
  _atom_site_fract_y
  _atom_site_fract_z
  _atom_site_occupancy
  Ti  Ti1       1.0  0.7240964784296939  0.8008999845126152  0.9388085817600381  1.0000
  O   O1        1.0  0.45823641495122197  0.15465609521992024  0.2685231627018234  1.0000
  O   O2        1.0  0.45818428136622485  0.47136801525882444  0.9627495978768519  1.0000
  O   O3        1.0  0.4581825956928611  0.7770746201138831  0.5852210597549765  1.0000
  O   O4        1.0  0.9898662073696625  0.7769823276074317  0.2686257093359897  1.0000
  Ti  Ti2       1.0  0.22407083082172  0.13429604551490545  0.605399272006897  1.0000
  Si  Si1       1.0  0.22410830199458256  0.4676057533296441  0.2722082535683944  1.0000
  O   O5        1.0  0.9900602874172592  0.1545571059394469  0.9626870881830895  1.0000
  O   O6        1.0  0.9899194271440328  0.4712442340533313  0.5852126954731399  1.0000
