data_image0
_chemical_formula_structural       SiTiSiO2CaO6
_chemical_formula_sum              "Si2 Ti1 O8 Ca1"
_cell_length_a       5.629569049574094
_cell_length_b       5.627139240824336
_cell_length_c       5.633075714111328
_cell_angle_alpha    106.58970524385211
_cell_angle_beta     106.57424005233354
_cell_angle_gamma    115.39949966005778

_space_group_name_H-M_alt    "P 1"
_space_group_IT_number       1

loop_
  _space_group_symop_operation_xyz
  'x, y, z'

loop_
  _atom_site_type_symbol
  _atom_site_label
  _atom_site_symmetry_multiplicity
  _atom_site_fract_x
  _atom_site_fract_y
  _atom_site_fract_z
  _atom_site_occupancy
  Si  Si1       1.0  0.3587845841114346  0.502498107613925  0.4111771610680696  1.0000
  Ti  Ti1       1.0  0.573058236852498  0.21757693792089705  0.9097637330177614  1.0000
  Si  Si2       1.0  0.11287927097310382  0.7567309062104548  0.9111149816198878  1.0000
  O   O1        1.0  0.5198918978777789  0.46521680109138885  0.21235400025450746  1.0000
  O   O2        1.0  0.9275974941255715  0.7455316085004448  0.08508673504409543  1.0000
  Ca  Ca1       1.0  0.8560897427937041  0.9999449554235282  0.41068040613134127  1.0000
  O   O3        1.0  0.9281832143506398  0.3974135276030698  0.736562061823333  1.0000
  O   O4        1.0  0.9990463399427034  0.34217745506988545  0.21155544838445825  1.0000
  O   O5        1.0  0.4728215630209047  0.942420205519493  0.0854675354457518  1.0000
  O   O6        1.0  0.12380301751976788  0.942403412921959  0.7366725985447057  1.0000
  O   O7        1.0  0.3974469359555716  0.34173329653071405  0.6103548746758768  1.0000
  O   O8        1.0  0.5198945853638968  0.862696662490986  0.6099625969128164  1.0000
