data_image0
_chemical_formula_structural       Ti2OSiCaO5
_chemical_formula_sum              "Ti2 O6 Si1 Ca1"
_cell_length_a       5.115195115401029
_cell_length_b       5.112677108614443
_cell_length_c       5.480343818664551
_cell_angle_alpha    62.69574541472947
_cell_angle_beta     62.677385781947876
_cell_angle_gamma    60.583661070916456

_space_group_name_H-M_alt    "P 1"
_space_group_IT_number       1

loop_
  _space_group_symop_operation_xyz
  'x, y, z'

loop_
  _atom_site_type_symbol
  _atom_site_label
  _atom_site_symmetry_multiplicity
  _atom_site_fract_x
  _atom_site_fract_y
  _atom_site_fract_z
  _atom_site_occupancy
  Ti  Ti1       1.0  0.1787107307258091  0.9614250928566345  0.183616077367581  1.0000
  Ti  Ti2       1.0  0.6934439389219361  0.4739897124245676  0.6440746934190191  1.0000
  O   O1        1.0  0.12757209124414723  0.20088346657820166  0.4415338011433671  1.0000
  Si  Si1       1.0  0.4911537435699608  0.27192680346548115  0.2509908405435104  1.0000
  Ca  Ca1       1.0  0.9671003232120082  0.7522250755618228  0.8186649157496434  1.0000
  O   O2        1.0  0.5303412003902698  0.11211413725397959  0.990051829284211  1.0000
  O   O3        1.0  0.7349366321478179  0.9092060615607147  0.44089579737586354  1.0000
  O   O4        1.0  0.41931836287671975  0.5168801341360696  0.44212249465621395  1.0000
  O   O5        1.0  0.33305463714208494  0.651928396086542  0.9890401748797893  1.0000
  O   O6        1.0  0.8716251565869634  0.3128537791385727  0.9910503779013886  1.0000
