data_image0
_chemical_formula_structural       CaTiOSi
_chemical_formula_sum              "Ca1 Ti1 O1 Si1"
_cell_length_a       3.192961220999966
_cell_length_b       3.1948969730035937
_cell_length_c       7.129582405090332
_cell_angle_alpha    77.11123096987042
_cell_angle_beta     77.11803340340778
_cell_angle_gamma    60.044008854885824

_space_group_name_H-M_alt    "P 1"
_space_group_IT_number       1

loop_
  _space_group_symop_operation_xyz
  'x, y, z'

loop_
  _atom_site_type_symbol
  _atom_site_label
  _atom_site_symmetry_multiplicity
  _atom_site_fract_x
  _atom_site_fract_y
  _atom_site_fract_z
  _atom_site_occupancy
  Ca  Ca1       1.0  0.4927463265696182  0.9583095346716137  0.19525956171379003  1.0000
  Ti  Ti1       1.0  0.027556897655739758  0.49302593428901476  0.5913822856353911  1.0000
  O   O1        1.0  0.7567306953221622  0.22237414958508436  0.40369179933882426  1.0000
  Si  Si1       1.0  0.27228973964665437  0.7379167006856017  0.8573632727096211  1.0000
