data_image0
_chemical_formula_structural       SiOTiO2TiCaO2Si2O7
_chemical_formula_sum              "Si3 O12 Ti2 Ca1"
_cell_length_a       5.1779699863171444
_cell_length_b       6.742297290717591
_cell_length_c       7.413824081420898
_cell_angle_alpha    88.94053771090736
_cell_angle_beta     76.2174735721934
_cell_angle_gamma    65.08864226050186

_space_group_name_H-M_alt    "P 1"
_space_group_IT_number       1

loop_
  _space_group_symop_operation_xyz
  'x, y, z'

loop_
  _atom_site_type_symbol
  _atom_site_label
  _atom_site_symmetry_multiplicity
  _atom_site_fract_x
  _atom_site_fract_y
  _atom_site_fract_z
  _atom_site_occupancy
  Si  Si1       1.0  0.4242461048625184  0.3716353854903008  0.3513502631185633  1.0000
  O   O1        1.0  0.7360195721856413  0.15209369117965663  0.3026672610374629  1.0000
  Ti  Ti1       1.0  0.015855854432091435  0.8588881419068817  0.2654917864030779  1.0000
  O   O2        1.0  0.15160072927007182  0.31222528434213775  0.4086611588492313  1.0000
  O   O3        1.0  0.034580541139590054  0.853874036073754  0.5087045613497375  1.0000
  Ti  Ti2       1.0  0.6993354294909411  0.6187955260693917  0.015485534980034767  1.0000
  Ca  Ca1       1.0  0.845487777753844  0.2418684072879017  0.6301415674876215  1.0000
  O   O4        1.0  0.44865853329126487  0.5857083438437578  0.8328643008004484  1.0000
  O   O5        1.0  0.3965069807283079  0.5553478274798268  0.1985203340007743  1.0000
  Si  Si2       1.0  0.211526978042244  0.7223713114322698  0.6806995766823748  1.0000
  Si  Si3       1.0  0.2592579305799063  0.0963235395511304  0.9074908927612594  1.0000
  O   O6        1.0  0.8123419775391139  0.7210888388467505  0.19811371261195812  1.0000
  O   O7        1.0  0.24525280551882003  0.9554267570340946  0.7297584721095212  1.0000
  O   O8        1.0  0.5195028689734201  0.17468805043424396  0.8491527614704794  1.0000
  O   O9        1.0  0.30176590317959323  0.9260024180443525  0.07176181719518297  1.0000
  O   O10       1.0  0.9211370298646123  0.7031367381670393  0.8179970116011072  1.0000
  O   O11       1.0  0.9487611790928653  0.31807943400740424  0.9511224646079013  1.0000
  O   O12       1.0  0.4496355912497962  0.5020630099915866  0.5321060338222975  1.0000
