data_image0
_chemical_formula_structural       CaSiTiO
_chemical_formula_sum              "Ca1 Si1 Ti1 O1"
_cell_length_a       3.886161928539386
_cell_length_b       3.8896674164288125
_cell_length_c       6.338085174560547
_cell_angle_alpha    72.16568051332065
_cell_angle_beta     72.19581659607518
_cell_angle_gamma    60.13393081721168

_space_group_name_H-M_alt    "P 1"
_space_group_IT_number       1

loop_
  _space_group_symop_operation_xyz
  'x, y, z'

loop_
  _atom_site_type_symbol
  _atom_site_label
  _atom_site_symmetry_multiplicity
  _atom_site_fract_x
  _atom_site_fract_y
  _atom_site_fract_z
  _atom_site_occupancy
  Ca  Ca1       1.0  0.520058208397393  0.3206043140675027  0.5638548274722796  1.0000
  Si  Si1       1.0  0.7316052098544563  0.5322276024613863  0.9285290485798522  1.0000
  Ti  Ti1       1.0  0.005188865789234864  0.8062339846667412  0.10852198198536524  1.0000
  O   O1        1.0  0.9032016279275195  0.7042689961619284  0.4146531686535156  1.0000
