data_image0
_chemical_formula_structural       TiCaOSiO2
_chemical_formula_sum              "Ti1 Ca1 O3 Si1"
_cell_length_a       5.277765653217262
_cell_length_b       4.779888328842814
_cell_length_c       5.289654731750488
_cell_angle_alpha    90.4246899760109
_cell_angle_beta     119.86538221988346
_cell_angle_gamma    123.73039859910016

_space_group_name_H-M_alt    "P 1"
_space_group_IT_number       1

loop_
  _space_group_symop_operation_xyz
  'x, y, z'

loop_
  _atom_site_type_symbol
  _atom_site_label
  _atom_site_symmetry_multiplicity
  _atom_site_fract_x
  _atom_site_fract_y
  _atom_site_fract_z
  _atom_site_occupancy
  Ti  Ti1       1.0  0.21832881629304093  0.37442391619014936  0.31112201088076746  1.0000
  Ca  Ca1       1.0  0.212039750405371  0.86233316926972  0.8084005591592106  1.0000
  O   O1        1.0  0.6138266107082025  0.45550505846700856  0.2969035825391687  1.0000
  Si  Si1       1.0  0.7511001974207361  0.671577132461518  0.0767341886789406  1.0000
  O   O2        1.0  0.8896623737508759  0.45226388758437125  0.9952000468023092  1.0000
  O   O3        1.0  0.3106656748082579  0.4528800824682067  0.7188309836722537  1.0000
