data_image0
_chemical_formula_structural       Ca2TiSiO3SiOSiO2
_chemical_formula_sum              "Ca2 Ti1 Si3 O6"
_cell_length_a       5.454263269266988
_cell_length_b       5.816800492972857
_cell_length_c       8.227361679077148
_cell_angle_alpha    94.97969575316677
_cell_angle_beta     103.51148962386833
_cell_angle_gamma    123.18093044114991

_space_group_name_H-M_alt    "P 1"
_space_group_IT_number       1

loop_
  _space_group_symop_operation_xyz
  'x, y, z'

loop_
  _atom_site_type_symbol
  _atom_site_label
  _atom_site_symmetry_multiplicity
  _atom_site_fract_x
  _atom_site_fract_y
  _atom_site_fract_z
  _atom_site_occupancy
  Ca  Ca1       1.0  0.44351273556208853  0.30103598845423485  0.05727594557151342  1.0000
  Ca  Ca2       1.0  0.5962071017100026  0.8635058584290711  0.7568819142170753  1.0000
  Ti  Ti1       1.0  0.8967208368167606  0.46291154088134095  0.4263900775754858  1.0000
  Si  Si1       1.0  0.9760460987932144  0.5716740709802762  0.86154943535188  1.0000
  O   O1        1.0  0.2874169590093939  0.6267432952860649  0.01745712866218913  1.0000
  O   O2        1.0  0.9948445009748542  0.6489747021455117  0.23918306346862891  1.0000
  O   O3        1.0  0.05739942033297432  0.5448599900008906  0.6816914802267962  1.0000
  Si  Si2       1.0  0.34256940091306565  0.74819174573963  0.233429063604302  1.0000
  O   O4        1.0  0.5800396559179039  0.09726448420977585  0.2671348932120978  1.0000
  Si  Si3       1.0  0.46965846788049936  0.5388529559088103  0.4231332493674781  1.0000
  O   O5        1.0  0.9851452168054465  0.8542875869368578  0.9085649134355213  1.0000
  O   O6        1.0  0.6637440196097916  0.2753009754730494  0.8581905933978591  1.0000
