data_image0
_chemical_formula_structural       CaSiO3Si
_chemical_formula_sum              "Ca1 Si2 O3"
_cell_length_a       5.002407729627113
_cell_length_b       4.983021331689317
_cell_length_c       4.595595359802246
_cell_angle_alpha    88.78691304240881
_cell_angle_beta     119.01704683110312
_cell_angle_gamma    115.36110046804154

_space_group_name_H-M_alt    "P 1"
_space_group_IT_number       1

loop_
  _space_group_symop_operation_xyz
  'x, y, z'

loop_
  _atom_site_type_symbol
  _atom_site_label
  _atom_site_symmetry_multiplicity
  _atom_site_fract_x
  _atom_site_fract_y
  _atom_site_fract_z
  _atom_site_occupancy
  Ca  Ca1       1.0  0.6341302575971286  0.9988291433010678  0.5693326539564443  1.0000
  Si  Si1       1.0  0.20033164961634323  0.318930485948071  0.3954979544986785  1.0000
  O   O1        1.0  0.8660660383856191  0.35890257989676133  0.07048057153395448  1.0000
  O   O2        1.0  0.4445612018890921  0.3435953920840839  0.22663933586603402  1.0000
  O   O3        1.0  0.05175841019677526  0.9518438890758436  0.43307126656564676  1.0000
  Si  Si2       1.0  0.6595369462472999  0.5809199574199708  0.03597623149422423  1.0000
