data_image0
_chemical_formula_structural       TiSiO2CaOTiO3
_chemical_formula_sum              "Ti2 Si1 O6 Ca1"
_cell_length_a       5.1638107385560374
_cell_length_b       5.160665454687699
_cell_length_c       5.53424596786499
_cell_angle_alpha    62.099816962507504
_cell_angle_beta     62.103588794944116
_cell_angle_gamma    60.10817163675609

_space_group_name_H-M_alt    "P 1"
_space_group_IT_number       1

loop_
  _space_group_symop_operation_xyz
  'x, y, z'

loop_
  _atom_site_type_symbol
  _atom_site_label
  _atom_site_symmetry_multiplicity
  _atom_site_fract_x
  _atom_site_fract_y
  _atom_site_fract_z
  _atom_site_occupancy
  Ti  Ti1       1.0  0.03284734822665146  0.82116678712379  0.5202526734359939  1.0000
  Si  Si1       1.0  0.7218700608010316  0.5104917654460117  0.45163681918869897  1.0000
  O   O1        1.0  0.3418383313286661  0.6696670107770705  0.7123438049982194  1.0000
  O   O2        1.0  0.08531425866955547  0.2667050559720514  0.26179645326751977  1.0000
  Ca  Ca1       1.0  0.24470079943905948  0.03372799898700123  0.8821826187923709  1.0000
  O   O3        1.0  0.8812850644800555  0.4707613311703454  0.712547942499348  1.0000
  Ti  Ti2       1.0  0.5197741822723184  0.3078845378362121  0.05916014591507516  1.0000
  O   O4        1.0  0.477944385133797  0.5807591415021923  0.26211602820457053  1.0000
  O   O5        1.0  0.6822577508655994  0.12982091640434607  0.7127061827796798  1.0000
  O   O6        1.0  0.7930405897393452  0.8740992581140231  0.26175831641920067  1.0000
