data_image0
_chemical_formula_structural       TiCa2SiO2
_chemical_formula_sum              "Ti1 Ca2 Si1 O2"
_cell_length_a       3.7389025366665742
_cell_length_b       3.7554064328593557
_cell_length_c       9.277715682983398
_cell_angle_alpha    78.72424078350447
_cell_angle_beta     78.7100895894859
_cell_angle_gamma    60.50057638672688

_space_group_name_H-M_alt    "P 1"
_space_group_IT_number       1

loop_
  _space_group_symop_operation_xyz
  'x, y, z'

loop_
  _atom_site_type_symbol
  _atom_site_label
  _atom_site_symmetry_multiplicity
  _atom_site_fract_x
  _atom_site_fract_y
  _atom_site_fract_z
  _atom_site_occupancy
  Ti  Ti1       1.0  0.6555094522049516  0.2172196760664564  0.7248923751871039  1.0000
  Ca  Ca1       1.0  0.38348525369721004  0.04486781931433902  0.432455262625273  1.0000
  Ca  Ca2       1.0  0.21379788952268236  0.8314670424075026  0.9968628837120869  1.0000
  Si  Si1       1.0  0.8121988307236473  0.43245974515917324  0.19833729066183248  1.0000
  O   O1        1.0  0.6815323634451083  0.35888859980052795  0.5258323807161394  1.0000
  O   O2        1.0  0.22957474133790462  0.04794310118561529  0.7438446492722832  1.0000
