data_image0
_chemical_formula_structural       TiCaSi2O6TiO4CaTiO3
_chemical_formula_sum              "Ti3 Ca2 Si2 O13"
_cell_length_a       6.333371814268248
_cell_length_b       5.948569509511426
_cell_length_c       7.832096099853516
_cell_angle_alpha    68.33740196254206
_cell_angle_beta     74.87510897449765
_cell_angle_gamma    78.68655313530233

_space_group_name_H-M_alt    "P 1"
_space_group_IT_number       1

loop_
  _space_group_symop_operation_xyz
  'x, y, z'

loop_
  _atom_site_type_symbol
  _atom_site_label
  _atom_site_symmetry_multiplicity
  _atom_site_fract_x
  _atom_site_fract_y
  _atom_site_fract_z
  _atom_site_occupancy
  Ti  Ti1       1.0  0.11275673350250168  0.36851067752300193  0.4975649351488455  1.0000
  Ca  Ca1       1.0  0.6389431775108353  0.1045060261762928  0.38657785033414066  1.0000
  Si  Si1       1.0  0.9939225150187183  0.389123419665143  0.9298495286700967  1.0000
  Si  Si2       1.0  0.5913103446199299  0.5551401928634363  0.4909572695954167  1.0000
  O   O1        1.0  0.4185119056508124  0.8541641593046263  0.9809076544564819  1.0000
  O   O2        1.0  0.4721667432269106  0.23377842694231724  0.06077983594544308  1.0000
  O   O3        1.0  0.8135966073669164  0.3664707202070776  0.4651643533145959  1.0000
  O   O4        1.0  0.40336221373467623  0.38071513174759464  0.5314748951055305  1.0000
  O   O5        1.0  0.757630376239605  0.548676748498404  0.9698059577702468  1.0000
  O   O6        1.0  0.0034460514719103384  0.14141851380653164  0.11917746397418395  1.0000
  Ti  Ti2       1.0  0.459498068023271  0.5849066361446813  0.9149837628568323  1.0000
  O   O7        1.0  0.16610060884655709  0.580231948662755  0.8936872738533869  1.0000
  O   O8        1.0  0.23448218635498602  0.12290151246437339  0.4041195409535357  1.0000
  O   O9        1.0  0.06267547247439517  0.7425347274378753  0.42677041466327487  1.0000
  O   O10       1.0  0.577007698050533  0.790838706292506  0.2972397771778875  1.0000
  Ca  Ca2       1.0  0.7919666644865392  0.9147889077743653  0.9881608953482328  1.0000
  Ti  Ti3       1.0  0.2803218278236514  0.9814250870616905  0.20183477059151447  1.0000
  O   O11       1.0  0.574620829988907  0.6792783008539016  0.6511433763298563  1.0000
  O   O12       1.0  0.0009405410878022824  0.2712081400880728  0.7675543980489143  1.0000
  O   O13       1.0  0.13707345165177345  0.6626490888991838  0.2621057255257403  1.0000
