data_image0
_chemical_formula_structural       SiCaTiO5CaO
_chemical_formula_sum              "Si1 Ca2 Ti1 O6"
_cell_length_a       5.285953488709511
_cell_length_b       5.28082593690818
_cell_length_c       5.284938335418701
_cell_angle_alpha    60.18087747442597
_cell_angle_beta     59.982798132581095
_cell_angle_gamma    59.94804469735702

_space_group_name_H-M_alt    "P 1"
_space_group_IT_number       1

loop_
  _space_group_symop_operation_xyz
  'x, y, z'

loop_
  _atom_site_type_symbol
  _atom_site_label
  _atom_site_symmetry_multiplicity
  _atom_site_fract_x
  _atom_site_fract_y
  _atom_site_fract_z
  _atom_site_occupancy
  Si  Si1       1.0  0.37797369289386396  0.7418858445797218  0.9873291168015803  1.0000
  Ca  Ca1       1.0  0.12780563686359633  0.48823793276400823  0.7413710585798227  1.0000
  Ti  Ti1       1.0  0.8780744076150233  0.24186675779627548  0.48730427429948875  1.0000
  O   O1        1.0  0.6470552462148379  0.4742636169557764  0.19655331922459146  1.0000
  O   O2        1.0  0.1675869383458397  0.47406541410492503  0.19725441502664753  1.0000
  O   O3        1.0  0.1395640181890218  0.9251056509112722  0.2814983704056133  1.0000
  O   O4        1.0  0.5885243482019479  0.009708867461624164  0.7773541103209118  1.0000
  O   O5        1.0  0.6164345139542734  0.5586681861965268  0.6931224938955401  1.0000
  Ca  Ca2       1.0  0.6282334552520527  0.9954985309456484  0.23329318608025545  1.0000
  O   O6        1.0  0.1090384629373134  0.009617530931385086  0.7780258837485351  1.0000
