data_image0
_chemical_formula_structural       CaOTiSi
_chemical_formula_sum              "Ca1 O1 Ti1 Si1"
_cell_length_a       3.9917918987612793
_cell_length_b       4.4257676366507175
_cell_length_c       4.428347110748291
_cell_angle_alpha    119.87223814380594
_cell_angle_beta     90.02603235461247
_cell_angle_gamma    89.93396140120015

_space_group_name_H-M_alt    "P 1"
_space_group_IT_number       1

loop_
  _space_group_symop_operation_xyz
  'x, y, z'

loop_
  _atom_site_type_symbol
  _atom_site_label
  _atom_site_symmetry_multiplicity
  _atom_site_fract_x
  _atom_site_fract_y
  _atom_site_fract_z
  _atom_site_occupancy
  Ca  Ca1       1.0  0.18848847098684013  0.33316662993584184  0.8513983565700602  1.0000
  O   O1        1.0  0.1885826513994397  0.999893392483698  0.1858829717729404  1.0000
  Ti  Ti1       1.0  0.6886738314006304  0.9995300069609167  0.18570306747308207  1.0000
  Si  Si1       1.0  0.6884032474903446  0.6662815946017748  0.5189376103318247  1.0000
