data_image0
_chemical_formula_structural       OSiTiO7SiCa
_chemical_formula_sum              "O8 Si2 Ti1 Ca1"
_cell_length_a       5.639027215017024
_cell_length_b       5.641602178848294
_cell_length_c       5.649241924285889
_cell_angle_alpha    106.53722118437278
_cell_angle_beta     106.52694198525666
_cell_angle_gamma    115.35454635724287

_space_group_name_H-M_alt    "P 1"
_space_group_IT_number       1

loop_
  _space_group_symop_operation_xyz
  'x, y, z'

loop_
  _atom_site_type_symbol
  _atom_site_label
  _atom_site_symmetry_multiplicity
  _atom_site_fract_x
  _atom_site_fract_y
  _atom_site_fract_z
  _atom_site_occupancy
  O   O1        1.0  0.2140706515864085  0.2706211782748565  0.7443165565764892  1.0000
  Si  Si1       1.0  0.8549502918323237  0.10789341844341956  0.5549975822166212  1.0000
  Ti  Ti1       1.0  0.552890521022789  0.26834079747581746  0.028094284541672686  1.0000
  O   O2        1.0  0.9670573715430668  0.6251792299130038  0.13552039237105676  1.0000
  O   O3        1.0  0.2790764732121991  0.8335522386093971  0.8568840409954522  1.0000
  O   O4        1.0  0.7991621651406782  0.23930705935555707  0.32977109578169433  1.0000
  O   O5        1.0  0.6859758352431032  0.7436254998514431  0.35481804984131454  1.0000
  O   O6        1.0  0.272300782414265  0.19308088391798198  0.19870989647224752  1.0000
  O   O7        1.0  0.7436753031904616  0.7357917456810578  0.7491573765012994  1.0000
  O   O8        1.0  0.653953479888941  0.13160960681818715  0.71360338859294  1.0000
  Si  Si2       1.0  0.059110372690873665  0.8368603443069478  0.9918422643206348  1.0000
  Ca  Ca1       1.0  0.28606657341383496  0.5866080907563442  0.4694657298540484  1.0000
