data_image0
_chemical_formula_structural       TiOSiOCaO5SiO
_chemical_formula_sum              "Ti1 O8 Si2 Ca1"
_cell_length_a       5.357026311704028
_cell_length_b       5.35817194778842
_cell_length_c       6.5298991203308105
_cell_angle_alpha    89.99688110788212
_cell_angle_beta     89.97095371099485
_cell_angle_gamma    119.9074831303245

_space_group_name_H-M_alt    "P 1"
_space_group_IT_number       1

loop_
  _space_group_symop_operation_xyz
  'x, y, z'

loop_
  _atom_site_type_symbol
  _atom_site_label
  _atom_site_symmetry_multiplicity
  _atom_site_fract_x
  _atom_site_fract_y
  _atom_site_fract_z
  _atom_site_occupancy
  Ti  Ti1       1.0  0.14952794038831402  0.8215014790261014  0.09599074408847781  1.0000
  O   O1        1.0  0.31404530745792836  0.15119922433832758  0.9093441649244828  1.0000
  Si  Si1       1.0  0.4829846251534318  0.4879824367268577  0.8393091242374876  1.0000
  O   O2        1.0  0.9845382539840875  0.9860572886641009  0.28283106263422303  1.0000
  Ca  Ca1       1.0  0.14935562601231075  0.8212693249335685  0.5960505719771781  1.0000
  O   O3        1.0  0.4793371500905462  0.9864233593198004  0.2822624813338863  1.0000
  O   O4        1.0  0.8159525545920435  0.15538231522875817  0.6058100887026894  1.0000
  O   O5        1.0  0.8197095289816295  0.6566472218749317  0.9094148216744012  1.0000
  O   O6        1.0  0.48291999232827587  0.4882116493122419  0.5860161169160286  1.0000
  O   O7        1.0  0.9849470004128259  0.49160993926337204  0.2823215866410842  1.0000
  Si  Si2       1.0  0.8159988814506404  0.15490575200597534  0.3525324185784747  1.0000
  O   O8        1.0  0.31439727077447144  0.6567062568326169  0.9091980375215061  1.0000
