data_image0
_chemical_formula_structural       TiCa2O4SiO2
_chemical_formula_sum              "Ti1 Ca2 O6 Si1"
_cell_length_a       5.289689001127807
_cell_length_b       5.29463502185324
_cell_length_c       5.293155670166016
_cell_angle_alpha    60.02075203349533
_cell_angle_beta     59.99627208540579
_cell_angle_gamma    59.97835321604484

_space_group_name_H-M_alt    "P 1"
_space_group_IT_number       1

loop_
  _space_group_symop_operation_xyz
  'x, y, z'

loop_
  _atom_site_type_symbol
  _atom_site_label
  _atom_site_symmetry_multiplicity
  _atom_site_fract_x
  _atom_site_fract_y
  _atom_site_fract_z
  _atom_site_occupancy
  Ti  Ti1       1.0  0.6907052985199699  0.007281385030686475  0.9036399353043644  1.0000
  Ca  Ca1       1.0  0.9403289584634584  0.2576660663733162  0.1539077787687964  1.0000
  Ca  Ca2       1.0  0.440935838171685  0.7571503262325479  0.6535987360662252  1.0000
  O   O1        1.0  0.4298078336182135  0.2680606144733935  0.1644797465558159  1.0000
  O   O2        1.0  0.9516499123208091  0.7466298879590074  0.6426716411672212  1.0000
  O   O3        1.0  0.42990649932826036  0.2681516577725688  0.6428108350508669  1.0000
  O   O4        1.0  0.43013081332746667  0.7462954595929445  0.16427486674902206  1.0000
  Si  Si1       1.0  0.1907109504510001  0.5072989172999023  0.40363162973323924  1.0000
  O   O5        1.0  0.9513163801279865  0.26827093099744925  0.6429852659891413  1.0000
  O   O6        1.0  0.9514574824429132  0.7464308640458499  0.16442563239640967  1.0000
