data_image0
_chemical_formula_structural       CaTiSiO
_chemical_formula_sum              "Ca1 Ti1 Si1 O1"
_cell_length_a       3.177114634150923
_cell_length_b       3.177034005814813
_cell_length_c       7.108278274536133
_cell_angle_alpha    77.0773877394992
_cell_angle_beta     77.09030218253353
_cell_angle_gamma    60.06120754912272

_space_group_name_H-M_alt    "P 1"
_space_group_IT_number       1

loop_
  _space_group_symop_operation_xyz
  'x, y, z'

loop_
  _atom_site_type_symbol
  _atom_site_label
  _atom_site_symmetry_multiplicity
  _atom_site_fract_x
  _atom_site_fract_y
  _atom_site_fract_z
  _atom_site_occupancy
  Ca  Ca1       1.0  0.5004817617910022  0.8617867628508936  0.8178975648155923  1.0000
  Ti  Ti1       1.0  0.0348888416994491  0.3961881602830413  0.21433687943209476  1.0000
  Si  Si1       1.0  0.27948279079349153  0.6407207229317038  0.4809418859178845  1.0000
  O   O1        1.0  0.7642936707929836  0.1255186634619073  0.026595502258953924  1.0000
