data_image0
_chemical_formula_structural       OSi2TiOCaO2Ca2SiO6CaO2
_chemical_formula_sum              "O12 Si3 Ti1 Ca4"
_cell_length_a       6.515256961890463
_cell_length_b       6.708609521132706
_cell_length_c       8.049572944641113
_cell_angle_alpha    71.51033814455332
_cell_angle_beta     69.39839529776947
_cell_angle_gamma    73.08838606518948

_space_group_name_H-M_alt    "P 1"
_space_group_IT_number       1

loop_
  _space_group_symop_operation_xyz
  'x, y, z'

loop_
  _atom_site_type_symbol
  _atom_site_label
  _atom_site_symmetry_multiplicity
  _atom_site_fract_x
  _atom_site_fract_y
  _atom_site_fract_z
  _atom_site_occupancy
  O   O1        1.0  0.2780166783880015  0.23802272842065098  0.17463885484803424  1.0000
  Si  Si1       1.0  0.1485278230048287  0.8244678142012029  0.9653350951641542  1.0000
  Si  Si2       1.0  0.22912887225875073  0.5820813535432345  0.5598270628647197  1.0000
  Ti  Ti1       1.0  0.45194142858208003  0.40428462556574607  0.15469938174349018  1.0000
  O   O2        1.0  0.38223917841482036  0.48027939517423784  0.7006311254996088  1.0000
  Ca  Ca1       1.0  0.6140310971160181  0.7213875223830977  0.6445560489505165  1.0000
  O   O3        1.0  0.2053916194299488  0.02110103963947996  0.7887646857802463  1.0000
  O   O4        1.0  0.980282193957337  0.6822093420178281  0.9846670943410263  1.0000
  Ca  Ca2       1.0  0.4428456658132719  0.8707791407637426  0.19318099034304245  1.0000
  Ca  Ca3       1.0  0.06832149542956885  0.15903133857822513  0.5400216448084416  1.0000
  Si  Si3       1.0  0.8271544245946989  0.014717954633589103  0.28451248767183135  1.0000
  O   O5        1.0  0.6865912053740526  0.8315832114211092  0.336115258376913  1.0000
  O   O6        1.0  0.35671850467306165  0.48543332385540366  0.3673415394144079  1.0000
  O   O7        1.0  0.9867849668401448  0.5023815574629894  0.6446934861035486  1.0000
  O   O8        1.0  0.4110016455935523  0.6735074791180157  0.9848053357930904  1.0000
  O   O9        1.0  0.23060711591246214  0.8350166340705534  0.4825085136727192  1.0000
  O   O10       1.0  0.8104026534790066  0.06900185246031389  0.46890209820480344  1.0000
  Ca  Ca4       1.0  0.09118314807871275  0.3432903612212708  0.9338282909524722  1.0000
  O   O11       1.0  0.08192586419899726  0.9368787770829466  0.14501328535978758  1.0000
  O   O12       1.0  0.7388000935457187  0.23820996941772613  0.13219418664804405  1.0000
