data_image0
_chemical_formula_structural       CaO2TiOCaO2SiO
_chemical_formula_sum              "Ca2 O6 Ti1 Si1"
_cell_length_a       5.24782372103247
_cell_length_b       5.252912526480981
_cell_length_c       5.281731605529785
_cell_angle_alpha    119.89032478712467
_cell_angle_beta     119.88590108266233
_cell_angle_gamma    90.13476244828297

_space_group_name_H-M_alt    "P 1"
_space_group_IT_number       1

loop_
  _space_group_symop_operation_xyz
  'x, y, z'

loop_
  _atom_site_type_symbol
  _atom_site_label
  _atom_site_symmetry_multiplicity
  _atom_site_fract_x
  _atom_site_fract_y
  _atom_site_fract_z
  _atom_site_occupancy
  Ca  Ca1       1.0  0.707624102307075  0.234314901960279  0.10321952792794208  1.0000
  O   O1        1.0  0.6960284425249929  0.7238885030157494  0.08198156845496575  1.0000
  O   O2        1.0  0.7346246805767108  0.6833903987018866  0.6030647103851666  1.0000
  Ti  Ti1       1.0  0.9565688613686193  0.983976918000716  0.6028655388877915  1.0000
  O   O3        1.0  0.17843811459860523  0.2844452157063011  0.6025964499802036  1.0000
  Ca  Ca2       1.0  0.2054884282715664  0.733629694748283  0.1025612526143655  1.0000
  O   O4        1.0  0.25673626982563835  0.7616230777132245  0.6021208008170824  1.0000
  O   O5        1.0  0.21708836736590037  0.24416999372672596  0.12376733850306827  1.0000
  Si  Si1       1.0  0.45657285009658194  0.4839756148273645  0.6028458363955056  1.0000
  O   O6        1.0  0.656373968943421  0.20632084015969912  0.6035686681252395  1.0000
