data_image0
_chemical_formula_structural       OCaOTiO3Si2O3
_chemical_formula_sum              "O8 Ca1 Ti1 Si2"
_cell_length_a       5.627200479457577
_cell_length_b       5.632155532602677
_cell_length_c       5.631911277770996
_cell_angle_alpha    106.63790550431425
_cell_angle_beta     106.5198784142396
_cell_angle_gamma    115.48542841844107

_space_group_name_H-M_alt    "P 1"
_space_group_IT_number       1

loop_
  _space_group_symop_operation_xyz
  'x, y, z'

loop_
  _atom_site_type_symbol
  _atom_site_label
  _atom_site_symmetry_multiplicity
  _atom_site_fract_x
  _atom_site_fract_y
  _atom_site_fract_z
  _atom_site_occupancy
  O   O1        1.0  0.07685514563286959  0.3728216403605365  0.08390211365584924  1.0000
  Ca  Ca1       1.0  0.41744982335071334  0.9144118846498419  0.2841730672259489  1.0000
  O   O2        1.0  0.4766139619785446  0.64686736521784  0.9592620338177903  1.0000
  Ti  Ti1       1.0  0.20439638379201777  0.20024649145165654  0.7934541705377476  1.0000
  O   O3        1.0  0.021112173826910614  0.8434060173255559  0.9571442590128143  1.0000
  O   O4        1.0  0.5551721700580038  0.25041572749409446  0.08436374060630822  1.0000
  O   O5        1.0  0.669838655016409  0.8406228987605692  0.6081540689571866  1.0000
  Si  Si1       1.0  0.9158866265791068  0.41053698070183026  0.2831812479254524  1.0000
  Si  Si2       1.0  0.6614422683092142  0.6571327992223899  0.7836119285125385  1.0000
  O   O6        1.0  0.9524914775045769  0.2502500150251371  0.48184620532577577  1.0000
  O   O7        1.0  0.4757160585025362  0.29707244476558536  0.6097823292045513  1.0000
  O   O8        1.0  0.07476960575523006  0.7700866656385928  0.4835678834286067  1.0000
