data_image0
_chemical_formula_structural       CaOTiSiO2TiOSiO4CaO2
_chemical_formula_sum              "Ca2 O10 Ti2 Si2"
_cell_length_a       5.5022760191357465
_cell_length_b       5.504769890131184
_cell_length_c       7.127885818481445
_cell_angle_alpha    104.22674131774706
_cell_angle_beta     104.28234517079802
_cell_angle_gamma    105.70092078759022

_space_group_name_H-M_alt    "P 1"
_space_group_IT_number       1

loop_
  _space_group_symop_operation_xyz
  'x, y, z'

loop_
  _atom_site_type_symbol
  _atom_site_label
  _atom_site_symmetry_multiplicity
  _atom_site_fract_x
  _atom_site_fract_y
  _atom_site_fract_z
  _atom_site_occupancy
  Ca  Ca1       1.0  0.044273419709431536  0.6831824134910528  0.8835137676555063  1.0000
  O   O1        1.0  0.0299286071970017  0.8971931466810498  0.24960958092115712  1.0000
  Ti  Ti1       1.0  0.7163693980657172  0.011088903601192695  0.6334300596205515  1.0000
  Si  Si1       1.0  0.036094522184344134  0.691346549860071  0.38373497868699546  1.0000
  O   O2        1.0  0.09331243847505617  0.26228537588207734  0.7260103868078271  1.0000
  O   O3        1.0  0.9675250898739239  0.388164165607527  0.22627805387386438  1.0000
  Ti  Ti2       1.0  0.7164677521501743  0.010948704447210439  0.13342158536821017  1.0000
  O   O4        1.0  0.3395450839727844  0.7597711822913652  0.5413100296797067  1.0000
  Si  Si2       1.0  0.3967494537539458  0.33071750364193686  0.8835508156862734  1.0000
  O   O5        1.0  0.46535333464181156  0.6339026436811804  0.04106190945619097  1.0000
  O   O6        1.0  0.8302731795218703  0.6976544397825737  0.5178855285193821  1.0000
  O   O7        1.0  0.4030013040050438  0.12486979581930055  0.017672896232770685  1.0000
  O   O8        1.0  0.7849445201896391  0.9429040035806819  0.8837752353870696  1.0000
  Ca  Ca2       1.0  0.388628571027773  0.33891746585896165  0.38363875773686584  1.0000
  O   O9        1.0  0.6478625474370818  0.07914526798310044  0.38354235792741453  1.0000
  O   O10       1.0  0.602566994815379  0.32448984750391435  0.7494084439378913  1.0000
