data_image0
_chemical_formula_structural       TiOSiO2SiO2CaO3
_chemical_formula_sum              "Ti1 O8 Si2 Ca1"
_cell_length_a       5.6347442181572145
_cell_length_b       5.631016538933003
_cell_length_c       5.63988733291626
_cell_angle_alpha    106.4763718859702
_cell_angle_beta     106.56603138086824
_cell_angle_gamma    115.44477270529842

_space_group_name_H-M_alt    "P 1"
_space_group_IT_number       1

loop_
  _space_group_symop_operation_xyz
  'x, y, z'

loop_
  _atom_site_type_symbol
  _atom_site_label
  _atom_site_symmetry_multiplicity
  _atom_site_fract_x
  _atom_site_fract_y
  _atom_site_fract_z
  _atom_site_occupancy
  Ti  Ti1       1.0  0.1894990666496919  0.09469782328048482  0.6391670767991733  1.0000
  O   O1        1.0  0.27872274802388197  0.8841702821623566  0.3375104629664025  1.0000
  Si  Si1       1.0  0.43895910430215546  0.8452307814793892  0.13804901932719968  1.0000
  O   O2        1.0  0.4000322533493589  0.0058652686212051774  0.9384387070422494  1.0000
  O   O3        1.0  0.8756395586379424  0.6071062042655914  0.4636717444305754  1.0000
  Si  Si2       1.0  0.6892174231167233  0.5954368579991697  0.6379651614309628  1.0000
  O   O4        1.0  0.3285993810323595  0.40925285543890544  0.4644722767571387  1.0000
  O   O5        1.0  0.6770099132804666  0.408735195583256  0.812348292667271  1.0000
  Ca  Ca1       1.0  0.9391757299574999  0.34499334660764586  0.13807788314127029  1.0000
  O   O6        1.0  0.2787858864200156  0.4855833044987148  0.9389452321879559  1.0000
  O   O7        1.0  0.8755568468727529  0.9561004618953826  0.8116201081394273  1.0000
  O   O8        1.0  0.7985447731953493  0.005382197816348703  0.3369599300165701  1.0000
