data_image0
_chemical_formula_structural       OCaSiO
_chemical_formula_sum              "O2 Ca1 Si1"
_cell_length_a       3.5213464341908765
_cell_length_b       3.52237072470986
_cell_length_c       6.0179243087768555
_cell_angle_alpha    73.13311508872695
_cell_angle_beta     73.13648961463409
_cell_angle_gamma    60.205694476996044

_space_group_name_H-M_alt    "P 1"
_space_group_IT_number       1

loop_
  _space_group_symop_operation_xyz
  'x, y, z'

loop_
  _atom_site_type_symbol
  _atom_site_label
  _atom_site_symmetry_multiplicity
  _atom_site_fract_x
  _atom_site_fract_y
  _atom_site_fract_z
  _atom_site_occupancy
  O   O1        1.0  0.8664223606452909  0.8683018181270636  0.3473160442423412  1.0000
  Ca  Ca1       1.0  0.4729984197428772  0.45575527650636555  0.5769446766097956  1.0000
  Si  Si1       1.0  0.16189620694838658  0.9459440950920591  0.0772288834130231  1.0000
  O   O2        1.0  0.04790495355810202  0.04516507502581284  0.8068394532678127  1.0000
