data_image0
_chemical_formula_structural       O2CaTiOSiO3
_chemical_formula_sum              "O6 Ca1 Ti1 Si1"
_cell_length_a       4.991910729890728
_cell_length_b       5.0224607818945435
_cell_length_c       5.026508808135986
_cell_angle_alpha    119.99755765172364
_cell_angle_beta     89.98107604902356
_cell_angle_gamma    90.00148465559688

_space_group_name_H-M_alt    "P 1"
_space_group_IT_number       1

loop_
  _space_group_symop_operation_xyz
  'x, y, z'

loop_
  _atom_site_type_symbol
  _atom_site_label
  _atom_site_symmetry_multiplicity
  _atom_site_fract_x
  _atom_site_fract_y
  _atom_site_fract_z
  _atom_site_occupancy
  O   O1        1.0  0.2076178225004593  0.7661009000205662  0.1840177337779399  1.0000
  O   O2        1.0  0.7993585781555715  0.766173509893474  0.4304157216346054  1.0000
  Ca  Ca1       1.0  0.5034395198982741  0.7922273791120046  0.8202689244802891  1.0000
  Ti  Ti1       1.0  0.0034803497782468864  0.1257427814848156  0.4872220109050191  1.0000
  O   O3        1.0  0.20756965941321473  0.42835089678975374  0.43032387419082024  1.0000
  Si  Si1       1.0  0.0034995204638625416  0.4588345254533436  0.15348832152512476  1.0000
  O   O4        1.0  0.7994637645637781  0.18194028118434385  0.1840051259166466  1.0000
  O   O5        1.0  0.2075437031695113  0.18178328604620156  0.8461321860921348  1.0000
  O   O6        1.0  0.7994790286794097  0.4286398074172062  0.8463722566962656  1.0000
