data_image0
_chemical_formula_structural       OTiCa2O4SiO
_chemical_formula_sum              "O6 Ti1 Ca2 Si1"
_cell_length_a       5.26991075939655
_cell_length_b       5.268166977069478
_cell_length_c       5.277265548706055
_cell_angle_alpha    90.21655364896412
_cell_angle_beta     119.82610659136908
_cell_angle_gamma    119.87849191433592

_space_group_name_H-M_alt    "P 1"
_space_group_IT_number       1

loop_
  _space_group_symop_operation_xyz
  'x, y, z'

loop_
  _atom_site_type_symbol
  _atom_site_label
  _atom_site_symmetry_multiplicity
  _atom_site_fract_x
  _atom_site_fract_y
  _atom_site_fract_z
  _atom_site_occupancy
  O   O1        1.0  0.03272314814504519  0.1333988360772076  0.6284414802519154  1.0000
  Ti  Ti1       1.0  0.5543455649845865  0.42236622550205993  0.9178937579272822  1.0000
  Ca  Ca1       1.0  0.050628954265172874  0.6718448945659149  0.6637355502367578  1.0000
  Ca  Ca2       1.0  0.05807075115267219  0.17286801311854028  0.1722250759155397  1.0000
  O   O2        1.0  0.0760536513265987  0.7113541717167938  0.20742084359296378  1.0000
  O   O3        1.0  0.5557936336408166  0.19106302954624146  0.20831554290257168  1.0000
  O   O4        1.0  0.6085883352626259  0.16065148067903576  0.711331402910122  1.0000
  O   O5        1.0  0.5001443183644914  0.6840637936099283  0.12453326455975068  1.0000
  Si  Si1       1.0  0.5543898185232369  0.922337152343989  0.41801173387480295  1.0000
  O   O6        1.0  0.5529413463447151  0.6536835043989162  0.6275168669486496  1.0000
