data_image0
_chemical_formula_structural       OCa2TiO5TiOSi
_chemical_formula_sum              "O7 Ca2 Ti2 Si1"
_cell_length_a       3.7659343718678815
_cell_length_b       3.7624162283097737
_cell_length_c       9.662269592285156
_cell_angle_alpha    101.22440729995243
_cell_angle_beta     101.26844818757795
_cell_angle_gamma    89.9620746260921

_space_group_name_H-M_alt    "P 1"
_space_group_IT_number       1

loop_
  _space_group_symop_operation_xyz
  'x, y, z'

loop_
  _atom_site_type_symbol
  _atom_site_label
  _atom_site_symmetry_multiplicity
  _atom_site_fract_x
  _atom_site_fract_y
  _atom_site_fract_z
  _atom_site_occupancy
  O   O1        1.0  0.8203743738089438  0.4962698035889771  0.9896925075386198  1.0000
  Ca  Ca1       1.0  0.2954967465653823  0.9741260149597848  0.9407496449982049  1.0000
  Ca  Ca2       1.0  0.10367964062206944  0.7846795610402375  0.5684027504965907  1.0000
  Ti  Ti1       1.0  0.9088242547870821  0.5290929669733619  0.19898608652409608  1.0000
  O   O2        1.0  0.7071400923676813  0.8894980645701858  0.7615650295167659  1.0000
  O   O3        1.0  0.5180412617572568  0.7164646130825453  0.3520758441664923  1.0000
  O   O4        1.0  0.4254845656092761  0.1670016681725008  0.1767100279988152  1.0000
  O   O5        1.0  0.2067255744045051  0.38755235156943574  0.761041539751339  1.0000
  O   O6        1.0  0.014792163565572633  0.20358305799341336  0.35474983459464043  1.0000
  Ti  Ti2       1.0  0.71023739624137  0.3926538373730738  0.7686435547295979  1.0000
  O   O7        1.0  0.603099539060235  0.30265132844107295  0.5425770053081993  1.0000
  Si  Si1       1.0  0.500129780230504  0.1790693510968662  0.3604913090710008  1.0000
