data_image0
_chemical_formula_structural       Ca2OTiOSiOTiSiO7
_chemical_formula_sum              "Ca2 O10 Ti2 Si2"
_cell_length_a       5.137839964819253
_cell_length_b       5.2281532786411455
_cell_length_c       8.389513969421387
_cell_angle_alpha    82.85479126612802
_cell_angle_beta     84.63348220675557
_cell_angle_gamma    82.71365961473785

_space_group_name_H-M_alt    "P 1"
_space_group_IT_number       1

loop_
  _space_group_symop_operation_xyz
  'x, y, z'

loop_
  _atom_site_type_symbol
  _atom_site_label
  _atom_site_symmetry_multiplicity
  _atom_site_fract_x
  _atom_site_fract_y
  _atom_site_fract_z
  _atom_site_occupancy
  Ca  Ca1       1.0  0.09484537605455744  0.28752153020253557  0.31164458984383037  1.0000
  Ca  Ca2       1.0  0.5690860227379578  0.25906507615171814  0.604426123914329  1.0000
  O   O1        1.0  0.7611161820383784  0.5692594380395583  0.40165339942219724  1.0000
  Ti  Ti1       1.0  0.6519680912262554  0.8417577274801501  0.26701173649737703  1.0000
  O   O2        1.0  0.7123044004264029  0.8019132609810276  0.7742719924885263  1.0000
  Si  Si1       1.0  0.020345356180406494  0.8435078119190376  0.7094065059091134  1.0000
  O   O3        1.0  0.48320456881784674  0.09100317473857943  0.37535571494787157  1.0000
  Ti  Ti2       1.0  0.4557304503500715  0.6141878005712216  0.9109303957571365  1.0000
  Si  Si2       1.0  0.984216971201954  0.18889478685318287  0.9766695286216419  1.0000
  O   O4        1.0  0.4788737483147788  0.727270006067927  0.10411851450878706  1.0000
  O   O5        1.0  0.25013892009566857  0.5932353195584539  0.7082761556851931  1.0000
  O   O6        1.0  0.9966426651601618  0.06083749394443696  0.5565428560876505  1.0000
  O   O7        1.0  0.9231876357458506  0.020744861768070073  0.15309381827488336  1.0000
  O   O8        1.0  0.14624305404966745  0.9795298411496156  0.8573560114338474  1.0000
  O   O9        1.0  0.7072983055345275  0.3154361159668336  0.8976159484431827  1.0000
  O   O10       1.0  0.17039969859339185  0.39675587315861865  0.019074826312056408  1.0000
