data_image0
_chemical_formula_structural       OCa2O3TiOSiO
_chemical_formula_sum              "O6 Ca2 Ti1 Si1"
_cell_length_a       5.266490943826424
_cell_length_b       5.267791033398657
_cell_length_c       5.268294334411621
_cell_angle_alpha    60.329807709452375
_cell_angle_beta     60.312750907143965
_cell_angle_gamma    60.30844171269631

_space_group_name_H-M_alt    "P 1"
_space_group_IT_number       1

loop_
  _space_group_symop_operation_xyz
  'x, y, z'

loop_
  _atom_site_type_symbol
  _atom_site_label
  _atom_site_symmetry_multiplicity
  _atom_site_fract_x
  _atom_site_fract_y
  _atom_site_fract_z
  _atom_site_occupancy
  O   O1        1.0  0.030565168484664906  0.6405723251204322  0.2965597432659596  1.0000
  Ca  Ca1       1.0  0.5428864236465845  0.6773897519275488  0.23954136115156652  1.0000
  Ca  Ca2       1.0  0.04163738982932323  0.17580273553941328  0.7378500420817093  1.0000
  O   O2        1.0  0.07782410434128033  0.1188328406569572  0.25054056378498335  1.0000
  O   O3        1.0  0.5065053064809345  0.7341460415216777  0.7264267140163282  1.0000
  O   O4        1.0  0.6002927452246382  0.163716513973802  0.20251386663824794  1.0000
  Ti  Ti1       1.0  0.29222847860149676  0.4265921011294449  0.9886379038342498  1.0000
  O   O5        1.0  0.5535166589881706  0.21246893418864277  0.680574345939047  1.0000
  Si  Si1       1.0  0.7922463978121198  0.9265042473407328  0.4885373399051911  1.0000
  O   O6        1.0  0.9839714114435163  0.6890170513042574  0.7746800369705842  1.0000
