data_image0
_chemical_formula_structural       SiOCaSiTiO7
_chemical_formula_sum              "Si2 O8 Ca1 Ti1"
_cell_length_a       6.182256822694057
_cell_length_b       7.310869199119687
_cell_length_c       5.5976457595825195
_cell_angle_alpha    105.64265068812763
_cell_angle_beta     105.8411980525638
_cell_angle_gamma    121.5265786082489

_space_group_name_H-M_alt    "P 1"
_space_group_IT_number       1

loop_
  _space_group_symop_operation_xyz
  'x, y, z'

loop_
  _atom_site_type_symbol
  _atom_site_label
  _atom_site_symmetry_multiplicity
  _atom_site_fract_x
  _atom_site_fract_y
  _atom_site_fract_z
  _atom_site_occupancy
  Si  Si1       1.0  0.8018190643008127  0.9403763607668848  0.8747501176975007  1.0000
  O   O1        1.0  0.6099250784839582  0.3893842036811089  0.08246801937651256  1.0000
  Ca  Ca1       1.0  0.1800864564736903  0.2670163636262651  0.6641221570676594  1.0000
  Si  Si2       1.0  0.7874873386370383  0.37128774923124164  0.9200992035369313  1.0000
  Ti  Ti1       1.0  0.5903443363909266  0.5321737086029972  0.41920670357245143  1.0000
  O   O2        1.0  0.7275137793419125  0.11005341583201719  0.7889682455474447  1.0000
  O   O3        1.0  0.6808215148812761  0.3937769071900178  0.634563887076541  1.0000
  O   O4        1.0  0.9189685408421682  0.8728949550091566  0.6470955492899177  1.0000
  O   O5        1.0  0.3224286473628953  0.5333672005792419  0.13321730845972501  1.0000
  O   O6        1.0  0.04786185175907964  0.10000077999493427  0.20592614518629673  1.0000
  O   O7        1.0  0.4960161526679143  0.651989461281615  0.7113385449699346  1.0000
  O   O8        1.0  0.1435123342266143  0.5969888810588944  0.18128044336645216  1.0000
