data_image0
_chemical_formula_structural       CaSiO5SiOTi
_chemical_formula_sum              "Ca1 Si2 O6 Ti1"
_cell_length_a       4.866927099586291
_cell_length_b       5.404549364884939
_cell_length_c       5.794503688812256
_cell_angle_alpha    65.05085077533256
_cell_angle_beta     84.49131855391857
_cell_angle_gamma    79.62189181899598

_space_group_name_H-M_alt    "P 1"
_space_group_IT_number       1

loop_
  _space_group_symop_operation_xyz
  'x, y, z'

loop_
  _atom_site_type_symbol
  _atom_site_label
  _atom_site_symmetry_multiplicity
  _atom_site_fract_x
  _atom_site_fract_y
  _atom_site_fract_z
  _atom_site_occupancy
  Ca  Ca1       1.0  0.3045168205078547  0.6925693041521886  0.7481853091427438  1.0000
  Si  Si1       1.0  0.5024659790006017  0.4055017571150697  0.2663127243815938  1.0000
  O   O1        1.0  0.7848993724072308  0.6101710397743598  0.5748934947131307  1.0000
  O   O2        1.0  0.42233521595630147  0.2662158582415317  0.08841808844661533  1.0000
  O   O3        1.0  0.28801189155461454  0.35636638398724313  0.5191768423482362  1.0000
  O   O4        1.0  0.5101936261569636  0.7268975758174036  0.08539671170206989  1.0000
  O   O5        1.0  0.8203683962676728  0.23552175379200427  0.37592206689462837  1.0000
  Si  Si2       1.0  0.9522914632260588  0.3114914596017106  0.5927289428739638  1.0000
  O   O6        1.0  0.96777541714326  0.03193410355793808  0.8511456270572118  1.0000
  Ti  Ti1       1.0  0.7536473164877759  0.9330896627977355  0.18715970934946086  1.0000
