data_image0
_chemical_formula_structural       Si3O2Ca
_chemical_formula_sum              "Si3 O2 Ca1"
_cell_length_a       3.693610608883961
_cell_length_b       3.69760857756128
_cell_length_c       8.255355834960938
_cell_angle_alpha    77.1548149487025
_cell_angle_beta     77.16338588756007
_cell_angle_gamma    60.150145953955914

_space_group_name_H-M_alt    "P 1"
_space_group_IT_number       1

loop_
  _space_group_symop_operation_xyz
  'x, y, z'

loop_
  _atom_site_type_symbol
  _atom_site_label
  _atom_site_symmetry_multiplicity
  _atom_site_fract_x
  _atom_site_fract_y
  _atom_site_fract_z
  _atom_site_occupancy
  Si  Si1       1.0  0.5593119294098522  0.23755647083237386  0.8141068388429152  1.0000
  Si  Si2       1.0  0.9357492804502244  0.6145311532916993  0.6757963325558408  1.0000
  Si  Si3       1.0  0.3866532659324948  0.06463287215995914  0.44859700234462335  1.0000
  O   O1        1.0  0.11985099436047292  0.7972221994939508  0.4556967725957527  1.0000
  O   O2        1.0  0.48123844433065144  0.15880018942393398  0.23744182401514968  1.0000
  Ca  Ca1       1.0  0.1755664823845618  0.8525670816686813  0.11550969169014633  1.0000
