data_image0
_chemical_formula_structural       SiCaTiSiOTiSiO2TiO2CaO7
_chemical_formula_sum              "Si3 Ca2 Ti3 O12"
_cell_length_a       5.591756219421014
_cell_length_b       5.96831027870489
_cell_length_c       8.055936813354492
_cell_angle_alpha    91.58746818178328
_cell_angle_beta     86.37204512925307
_cell_angle_gamma    87.40444188442267

_space_group_name_H-M_alt    "P 1"
_space_group_IT_number       1

loop_
  _space_group_symop_operation_xyz
  'x, y, z'

loop_
  _atom_site_type_symbol
  _atom_site_label
  _atom_site_symmetry_multiplicity
  _atom_site_fract_x
  _atom_site_fract_y
  _atom_site_fract_z
  _atom_site_occupancy
  Si  Si1       1.0  0.9200213392184526  0.730816432013828  0.8352332419391617  1.0000
  Ca  Ca1       1.0  0.7832100710970243  0.27255228654953784  0.09924891846778194  1.0000
  Ti  Ti1       1.0  0.2296976257969253  0.12475794811452116  0.34330590093872426  1.0000
  Si  Si2       1.0  0.40492948164659137  0.9679675731063623  0.9423709568454434  1.0000
  O   O1        1.0  0.12538283162111977  0.8924050461192847  0.9176725235260516  1.0000
  Ti  Ti2       1.0  0.2510477644152194  0.38231192366615513  0.7124049081685965  1.0000
  Si  Si3       1.0  0.5176631929359341  0.5984324004938802  0.40035750091661376  1.0000
  O   O2        1.0  0.08668355551581206  0.23713530141410713  0.563729766458038  1.0000
  O   O3        1.0  0.4757942078110305  0.1618695807394698  0.8107243476869092  1.0000
  Ti  Ti3       1.0  0.0517577868915346  0.7392521939551436  0.3865021392926338  1.0000
  O   O4        1.0  0.7701972605358137  0.5658282802248634  0.28855157642176404  1.0000
  O   O5        1.0  0.42488112848104936  0.07728749605693999  0.12619786076368728  1.0000
  Ca  Ca2       1.0  0.7157023486411466  0.10242093167471399  0.564409037986486  1.0000
  O   O6        1.0  0.534847680344577  0.46346802746445437  0.5749407041598623  1.0000
  O   O7        1.0  0.9213430727523763  0.024736574848613767  0.2920420383572984  1.0000
  O   O8        1.0  0.41920150863306477  0.8614312570803526  0.4446766575087399  1.0000
  O   O9        1.0  0.6381479464884531  0.7814114592999113  0.9125993187374789  1.0000
  O   O10       1.0  0.9379339074436671  0.7641053543247337  0.6339996501606381  1.0000
  O   O11       1.0  0.29464942505603897  0.4942223069819776  0.29828650476919455  1.0000
  O   O12       1.0  0.9897467341814679  0.4743961356904241  0.8887462929848755  1.0000
