data_image0
_chemical_formula_structural       CaOSiOSiOTiO2
_chemical_formula_sum              "Ca1 O5 Si2 Ti1"
_cell_length_a       5.166631478688842
_cell_length_b       5.632978217588829
_cell_length_c       6.102030277252197
_cell_angle_alpha    107.43674477244618
_cell_angle_beta     103.79237985812127
_cell_angle_gamma    119.05809744693298

_space_group_name_H-M_alt    "P 1"
_space_group_IT_number       1

loop_
  _space_group_symop_operation_xyz
  'x, y, z'

loop_
  _atom_site_type_symbol
  _atom_site_label
  _atom_site_symmetry_multiplicity
  _atom_site_fract_x
  _atom_site_fract_y
  _atom_site_fract_z
  _atom_site_occupancy
  Ca  Ca1       1.0  0.3968842934640934  0.4955546118215274  0.6718786788138003  1.0000
  O   O1        1.0  0.44948821266604677  0.16815280106048133  0.3632390767564949  1.0000
  Si  Si1       1.0  0.6378076455953358  0.015005801772462248  0.4833400772289271  1.0000
  O   O2        1.0  0.5063181140310894  0.2771053128690516  0.9681614133678261  1.0000
  Si  Si2       1.0  0.2592133504577601  0.03306490855252848  0.04731507639230923  1.0000
  O   O3        1.0  0.30977030074617673  0.636997144996229  0.35564347167474564  1.0000
  Ti  Ti1       1.0  0.921988042217674  0.35839173322092827  0.9935352737091737  1.0000
  O   O4        1.0  0.15694841660458284  0.6824189335294111  0.8969509219399208  1.0000
  O   O5        1.0  0.9131086555573956  0.0015265437334063977  0.9785465336740904  1.0000
