data_image0
_chemical_formula_structural       TiO2TiOSiCa2O7SiO2
_chemical_formula_sum              "Ti2 O12 Si2 Ca2"
_cell_length_a       5.029804059009464
_cell_length_b       5.033908533167214
_cell_length_c       9.92583179473877
_cell_angle_alpha    90.0147147333871
_cell_angle_beta     89.9800105398092
_cell_angle_gamma    119.82590381149113

_space_group_name_H-M_alt    "P 1"
_space_group_IT_number       1

loop_
  _space_group_symop_operation_xyz
  'x, y, z'

loop_
  _atom_site_type_symbol
  _atom_site_label
  _atom_site_symmetry_multiplicity
  _atom_site_fract_x
  _atom_site_fract_y
  _atom_site_fract_z
  _atom_site_occupancy
  Ti  Ti1       1.0  0.856742127122619  0.5535767830750552  0.04939029338968173  1.0000
  O   O1        1.0  0.5814155880339863  0.586189211837063  0.44646136221552357  1.0000
  O   O2        1.0  0.7984737698597376  0.855558265099465  0.15212628809587334  1.0000
  Ti  Ti2       1.0  0.5229503184347175  0.8879841772151552  0.5495194022713495  1.0000
  O   O3        1.0  0.5550745763362267  0.6121525509323588  0.9465978406192949  1.0000
  Si  Si1       1.0  0.8565541362677799  0.5541094787608473  0.5493046576401721  1.0000
  Ca  Ca1       1.0  0.18987468622641862  0.2208246688376255  0.29938524553306506  1.0000
  Ca  Ca2       1.0  0.18983295284953533  0.22078008353211892  0.7993822600727891  1.0000
  O   O4        1.0  0.5810605514621083  0.2476664016356012  0.6519156429852188  1.0000
  O   O5        1.0  0.8246231932902225  0.8294912684422692  0.6520413790696546  1.0000
  O   O6        1.0  0.5546226799050997  0.19443269470309213  0.1519868568271796  1.0000
  O   O7        1.0  0.16310692147596315  0.8294476231618274  0.44658690959080943  1.0000
  O   O8        1.0  0.7985554832290681  0.19394282649249375  0.9466714131070542  1.0000
  O   O9        1.0  0.21603915343991945  0.8557167339659334  0.9466929718721852  1.0000
  O   O10       1.0  0.16369340797950982  0.585815706706731  0.651923044119538  1.0000
  Si  Si2       1.0  0.5231748469913154  0.8875183762658637  0.04931907051435016  1.0000
  O   O11       1.0  0.21656681540532507  0.612124969422986  0.15204626119812653  1.0000
  O   O12       1.0  0.8250569347125498  0.24721459838415472  0.4466420892162746  1.0000
