data_image0
_chemical_formula_structural       CaTiSiO
_chemical_formula_sum              "Ca1 Ti1 Si1 O1"
_cell_length_a       3.17704608000698
_cell_length_b       3.1796574767554993
_cell_length_c       7.131077766418457
_cell_angle_alpha    77.14835252691984
_cell_angle_beta     77.15737563026813
_cell_angle_gamma    60.084649873636366

_space_group_name_H-M_alt    "P 1"
_space_group_IT_number       1

loop_
  _space_group_symop_operation_xyz
  'x, y, z'

loop_
  _atom_site_type_symbol
  _atom_site_label
  _atom_site_symmetry_multiplicity
  _atom_site_fract_x
  _atom_site_fract_y
  _atom_site_fract_z
  _atom_site_occupancy
  Ca  Ca1       1.0  0.4052875593034656  0.6132204894006074  0.26516703139181136  1.0000
  Ti  Ti1       1.0  0.9399600461762104  0.1476991980208933  0.6611968551503402  1.0000
  Si  Si1       1.0  0.184471889820957  0.3924678416352141  0.9278123304181574  1.0000
  O   O1        1.0  0.6691738639573733  0.8771839869114566  0.4736598784144471  1.0000
