data_image0
_chemical_formula_structural       TiOCaO2CaOSiO7CaSiTi
_chemical_formula_sum              "Ti2 O11 Ca3 Si2"
_cell_length_a       4.957143116182512
_cell_length_b       5.668493332021555
_cell_length_c       10.947833061218262
_cell_angle_alpha    98.32666559574798
_cell_angle_beta     75.32771737384333
_cell_angle_gamma    115.50449427322303

_space_group_name_H-M_alt    "P 1"
_space_group_IT_number       1

loop_
  _space_group_symop_operation_xyz
  'x, y, z'

loop_
  _atom_site_type_symbol
  _atom_site_label
  _atom_site_symmetry_multiplicity
  _atom_site_fract_x
  _atom_site_fract_y
  _atom_site_fract_z
  _atom_site_occupancy
  Ti  Ti1       1.0  0.4386182131230038  0.9814097213693841  0.11602412462128922  1.0000
  O   O1        1.0  0.6251187035740595  0.33969814696322  0.17569587156530575  1.0000
  Ca  Ca1       1.0  0.6595382346256269  0.3979451240161013  0.6455274631840778  1.0000
  O   O2        1.0  0.6041409767845621  0.634543639799824  0.8295723668840016  1.0000
  O   O3        1.0  0.4587040869399894  0.9749485010896287  0.7361585428273613  1.0000
  Ca  Ca2       1.0  0.7673244506474193  0.5204631747158106  0.9648284333598341  1.0000
  O   O4        1.0  0.21865919771160017  0.812105996702124  0.9841815789796178  1.0000
  Si  Si1       1.0  0.6963072354588152  0.6382709245774091  0.2490574431072102  1.0000
  O   O5        1.0  0.7356156930701468  0.1152948261362213  0.945071770480778  1.0000
  O   O6        1.0  0.22904807832684235  0.44511697679827744  0.6172557908277113  1.0000
  O   O7        1.0  0.6049866757694262  0.7739306082372148  0.1471796877272675  1.0000
  O   O8        1.0  0.47528614868796254  0.5899561296590349  0.38451619048309293  1.0000
  O   O9        1.0  0.647499024243695  0.09813962159791939  0.482050548007226  1.0000
  O   O10       1.0  0.017542339002510624  0.7850340146828619  0.5528591786901189  1.0000
  O   O11       1.0  0.06187575332557435  0.8403368638638692  0.24144188291142368  1.0000
  Ca  Ca3       1.0  0.1497562220265935  0.15068309858306733  0.4471573811118334  1.0000
  Si  Si2       1.0  0.5173955398031741  0.8825797714477129  0.8561096827598526  1.0000
  Ti  Ti2       1.0  0.3663919104887824  0.7807185455232275  0.5596733239976625  1.0000
