data_image0
_chemical_formula_structural       TiSiOCaO7Si
_chemical_formula_sum              "Ti1 Si2 O8 Ca1"
_cell_length_a       5.64153319990339
_cell_length_b       5.640751060799225
_cell_length_c       5.6440300941467285
_cell_angle_alpha    106.49827602236832
_cell_angle_beta     106.36043577609946
_cell_angle_gamma    115.6560121087258

_space_group_name_H-M_alt    "P 1"
_space_group_IT_number       1

loop_
  _space_group_symop_operation_xyz
  'x, y, z'

loop_
  _atom_site_type_symbol
  _atom_site_label
  _atom_site_symmetry_multiplicity
  _atom_site_fract_x
  _atom_site_fract_y
  _atom_site_fract_z
  _atom_site_occupancy
  Ti  Ti1       1.0  0.7208230904265543  0.6713586392612131  0.8732838610572152  1.0000
  Si  Si1       1.0  0.8792320755963825  0.3720013684147245  0.3430413648738719  1.0000
  O   O1        1.0  0.7507451295394793  0.428504028621362  0.5709871473470309  1.0000
  Ca  Ca1       1.0  0.40265894109266115  0.9399060508643551  0.42885218504629236  1.0000
  O   O2        1.0  0.8558195221175438  0.5735280065587272  0.18550370243443037  1.0000
  O   O3        1.0  0.2557903430501534  0.4829471860504802  0.1519354549184543  1.0000
  O   O4        1.0  0.794712016819465  0.9543858425538251  0.7028819939987451  1.0000
  O   O5        1.0  0.7161743160402624  0.012084966379938784  0.15563351588641508  1.0000
  O   O6        1.0  0.15663205479809078  0.9479147663961525  0.04250385338984071  1.0000
  O   O7        1.0  0.3605836521540253  0.257634132343639  0.7597727830333508  1.0000
  O   O8        1.0  0.24363651838537448  0.5399008662974941  0.5417141177244522  1.0000
  Si  Si2       1.0  0.15175504432913983  0.16713943914588666  0.907222533089972  1.0000
