data_image0
_chemical_formula_structural       Ca2TiSiO
_chemical_formula_sum              "Ca2 Ti1 Si1 O1"
_cell_length_a       4.683116499616657
_cell_length_b       4.6868917717633725
_cell_length_c       4.150927543640137
_cell_angle_alpha    89.98260601216477
_cell_angle_beta     89.99055635311908
_cell_angle_gamma    90.02499416732071

_space_group_name_H-M_alt    "P 1"
_space_group_IT_number       1

loop_
  _space_group_symop_operation_xyz
  'x, y, z'

loop_
  _atom_site_type_symbol
  _atom_site_label
  _atom_site_symmetry_multiplicity
  _atom_site_fract_x
  _atom_site_fract_y
  _atom_site_fract_z
  _atom_site_occupancy
  Ca  Ca1       1.0  0.32290019358447863  0.5230031627102293  0.3392044688847638  1.0000
  Ca  Ca2       1.0  0.8226688541728929  0.02242824701125863  0.33949263912113725  1.0000
  Ti  Ti1       1.0  0.32253045252451756  0.023373401238141245  0.8393170517317072  1.0000
  Si  Si1       1.0  0.822209871278473  0.5228428111371721  0.8393527241547379  1.0000
  O   O1        1.0  0.3225072900185939  0.022949512651362997  0.3395640013319437  1.0000
