data_image0
_chemical_formula_structural       Ca2TiSiOTiOSiO3CaO6
_chemical_formula_sum              "Ca3 Ti2 Si2 O11"
_cell_length_a       6.050172529962302
_cell_length_b       6.47572421182072
_cell_length_c       7.752506256103516
_cell_angle_alpha    106.88359977860098
_cell_angle_beta     106.21167376526576
_cell_angle_gamma    105.91983411896804

_space_group_name_H-M_alt    "P 1"
_space_group_IT_number       1

loop_
  _space_group_symop_operation_xyz
  'x, y, z'

loop_
  _atom_site_type_symbol
  _atom_site_label
  _atom_site_symmetry_multiplicity
  _atom_site_fract_x
  _atom_site_fract_y
  _atom_site_fract_z
  _atom_site_occupancy
  Ca  Ca1       1.0  0.25133032403879835  0.8965805460329666  0.8261159631961185  1.0000
  Ca  Ca2       1.0  0.8243463323211949  0.8396599772512057  0.08588826790556374  1.0000
  Ti  Ti1       1.0  0.6781046472389732  0.9531741060409298  0.6677064895613344  1.0000
  Si  Si1       1.0  0.03008885203425921  0.30912255696335983  0.5017285322868261  1.0000
  O   O1        1.0  0.12017829382600687  0.16073861248075727  0.34813258583437623  1.0000
  Ti  Ti2       1.0  0.3225918315841914  0.582398481761567  0.17186344007441617  1.0000
  O   O2        1.0  0.416444215444014  0.8044048257160363  0.0958682556386447  1.0000
  Si  Si2       1.0  0.7411111903254085  0.34190178950286276  0.13396576964921578  1.0000
  O   O3        1.0  0.5263860276019933  0.6868345198949124  0.4229241558143451  1.0000
  O   O4        1.0  0.47472483062856835  0.3779762369812975  0.06296399315052806  1.0000
  O   O5        1.0  0.9809996085518843  0.5510591668797276  0.14544542593366094  1.0000
  Ca  Ca3       1.0  0.5434393116864438  0.3860814113889953  0.5598339083590868  1.0000
  O   O6        1.0  0.7891256198962594  0.3505699684019549  0.3598506407663373  1.0000
  O   O7        1.0  0.4268579778238041  0.047462815206442605  0.6385072684779517  1.0000
  O   O8        1.0  0.896796324179674  0.17453603358057893  0.6205184361492689  1.0000
  O   O9        1.0  0.8378909395709687  0.7755653296792542  0.7835858139604224  1.0000
  O   O10       1.0  0.2606538256220319  0.5499143465286495  0.6568187720373245  1.0000
  O   O11       1.0  0.7119295569861016  0.09809843694754798  0.9762533799320743  1.0000
