data_image0
_chemical_formula_structural       CaSiO2
_chemical_formula_sum              "Ca1 Si1 O2"
_cell_length_a       3.527958253032223
_cell_length_b       3.539482114488347
_cell_length_c       6.016735076904297
_cell_angle_alpha    72.9028360941216
_cell_angle_beta     72.94246532626795
_cell_angle_gamma    60.31388503073152

_space_group_name_H-M_alt    "P 1"
_space_group_IT_number       1

loop_
  _space_group_symop_operation_xyz
  'x, y, z'

loop_
  _atom_site_type_symbol
  _atom_site_label
  _atom_site_symmetry_multiplicity
  _atom_site_fract_x
  _atom_site_fract_y
  _atom_site_fract_z
  _atom_site_occupancy
  Ca  Ca1       1.0  0.2351770379371701  0.19844572901048005  0.4426188171118176  1.0000
  Si  Si1       1.0  0.6129266007951102  0.6051672002743556  0.9434808708093527  1.0000
  O   O1        1.0  0.6554919106881446  0.6179549332038649  0.21288864473191535  1.0000
  O   O2        1.0  0.8340518001707267  0.7942926288742926  0.6731909066488911  1.0000
