data_image0
_chemical_formula_structural       CaO2SiO2TiO2SiO2
_chemical_formula_sum              "Ca1 O8 Si2 Ti1"
_cell_length_a       5.640927858595213
_cell_length_b       5.6445682333637395
_cell_length_c       5.656799793243408
_cell_angle_alpha    106.56975349436863
_cell_angle_beta     106.57823641509593
_cell_angle_gamma    115.267092784563

_space_group_name_H-M_alt    "P 1"
_space_group_IT_number       1

loop_
  _space_group_symop_operation_xyz
  'x, y, z'

loop_
  _atom_site_type_symbol
  _atom_site_label
  _atom_site_symmetry_multiplicity
  _atom_site_fract_x
  _atom_site_fract_y
  _atom_site_fract_z
  _atom_site_occupancy
  Ca  Ca1       1.0  0.8561130096510472  0.598211463171511  0.08747973858040638  1.0000
  O   O1        1.0  0.5371169010880327  0.6379241301725719  0.7526360400321502  1.0000
  O   O2        1.0  0.7834638383468333  0.28160079506613406  0.3600903447764962  1.0000
  Si  Si1       1.0  0.42441430823625054  0.11896656693225972  0.17168141346815138  1.0000
  O   O3        1.0  0.25427411767759517  0.7549910758842293  0.9700863836806382  1.0000
  O   O4        1.0  0.3690719112859822  0.2515132978615541  0.9472354348168138  1.0000
  Ti  Ti1       1.0  0.12306975646061433  0.280655254664173  0.6463900899495372  1.0000
  O   O5        1.0  0.8419186452409606  0.20521480075927825  0.8148680830365312  1.0000
  O   O6        1.0  0.8503373008013384  0.8460838453868667  0.47509887695553593  1.0000
  Si  Si2       1.0  0.6295174895944227  0.8489996889954997  0.6087645734744629  1.0000
  O   O7        1.0  0.22458781582217557  0.144001829662139  0.3311055586847196  1.0000
  O   O8        1.0  0.31494391243928976  0.7487092837304391  0.3653506685549694  1.0000
