data_image0
_chemical_formula_structural       O3CaSiO3SiOTiO
_chemical_formula_sum              "O8 Ca1 Si2 Ti1"
_cell_length_a       5.345586221111724
_cell_length_b       5.3481152287766305
_cell_length_c       6.516333103179932
_cell_angle_alpha    89.95442465254412
_cell_angle_beta     90.03278058076978
_cell_angle_gamma    119.9765773660287

_space_group_name_H-M_alt    "P 1"
_space_group_IT_number       1

loop_
  _space_group_symop_operation_xyz
  'x, y, z'

loop_
  _atom_site_type_symbol
  _atom_site_label
  _atom_site_symmetry_multiplicity
  _atom_site_fract_x
  _atom_site_fract_y
  _atom_site_fract_z
  _atom_site_occupancy
  O   O1        1.0  0.16254455253808542  0.007437138322949478  0.04568613355900906  1.0000
  O   O2        1.0  0.9947577782267284  0.17661452326313629  0.3701076066775734  1.0000
  O   O3        1.0  0.4923237334398404  0.172302287236345  0.671566309679471  1.0000
  Ca  Ca1       1.0  0.32742360742103727  0.8427063326603526  0.35870563123817945  1.0000
  Si  Si1       1.0  0.9942074155292906  0.1761842621816445  0.11637007374911655  1.0000
  O   O4        1.0  0.6598480420324162  0.5095777134865322  0.34732541038239434  1.0000
  O   O5        1.0  0.49243485244627716  0.678075653453557  0.6719545974635481  1.0000
  O   O6        1.0  0.9980125991349271  0.6779658163944033  0.6713760688269533  1.0000
  Si  Si2       1.0  0.6607302533950561  0.5093951238401717  0.6010557324956021  1.0000
  O   O7        1.0  0.6569586232823241  0.007671944684233923  0.045948717498697576  1.0000
  Ti  Ti1       1.0  0.3274590660707119  0.8428139206031257  0.8586755865422702  1.0000
  O   O8        1.0  0.1625409517922528  0.513204599845357  0.04571111939027968  1.0000
