data_image0
_chemical_formula_structural       CaSiTiSiO4CaO5
_chemical_formula_sum              "Ca2 Si2 Ti1 O9"
_cell_length_a       6.2177469306924875
_cell_length_b       6.246230125324252
_cell_length_c       6.365062236785889
_cell_angle_alpha    104.12464231982429
_cell_angle_beta     98.4706114895316
_cell_angle_gamma    96.00869087424395

_space_group_name_H-M_alt    "P 1"
_space_group_IT_number       1

loop_
  _space_group_symop_operation_xyz
  'x, y, z'

loop_
  _atom_site_type_symbol
  _atom_site_label
  _atom_site_symmetry_multiplicity
  _atom_site_fract_x
  _atom_site_fract_y
  _atom_site_fract_z
  _atom_site_occupancy
  Ca  Ca1       1.0  0.44941502040394365  0.890655075373713  0.016353431054373983  1.0000
  Si  Si1       1.0  0.8520273226634707  0.20745999330274767  0.5253519212494319  1.0000
  Ti  Ti1       1.0  0.028664446076760403  0.8241325831007514  0.23599450526715282  1.0000
  Si  Si2       1.0  0.6233857140941662  0.4439551322379458  0.8873801232444035  1.0000
  O   O1        1.0  0.460571286680098  0.5406498260597682  0.7191225459159385  1.0000
  O   O2        1.0  0.9972473343796397  0.39859403312253444  0.44705038723686363  1.0000
  O   O3        1.0  0.49144582874251846  0.26515301396251134  0.9890054904719032  1.0000
  O   O4        1.0  0.7486325799569871  0.6706927114242104  0.07874060220283809  1.0000
  Ca  Ca2       1.0  0.33717833754104953  0.3815562851871519  0.33127041142128416  1.0000
  O   O5        1.0  0.2587284094570088  0.6781604936058407  0.2136418722364518  1.0000
  O   O6        1.0  0.6174013754093632  0.1466364520499217  0.35453085945680346  1.0000
  O   O7        1.0  0.814737047046146  0.3175479205558092  0.7752269482200542  1.0000
  O   O8        1.0  0.1274722932615389  0.036919070628520234  0.12124501736466564  1.0000
  O   O9        1.0  0.9768905690027755  0.9884643244117302  0.5118509858152082  1.0000
