data_image0
_chemical_formula_structural       SiOTiCaO2SiO5
_chemical_formula_sum              "Si2 O8 Ti1 Ca1"
_cell_length_a       5.643639589871571
_cell_length_b       5.64426804399337
_cell_length_c       5.656110763549805
_cell_angle_alpha    106.51430710370488
_cell_angle_beta     106.53201640079871
_cell_angle_gamma    115.35171878340886

_space_group_name_H-M_alt    "P 1"
_space_group_IT_number       1

loop_
  _space_group_symop_operation_xyz
  'x, y, z'

loop_
  _atom_site_type_symbol
  _atom_site_label
  _atom_site_symmetry_multiplicity
  _atom_site_fract_x
  _atom_site_fract_y
  _atom_site_fract_z
  _atom_site_occupancy
  Si  Si1       1.0  0.5339597631241368  0.40488751539901113  0.5883751269978722  1.0000
  O   O1        1.0  0.5892931609094356  0.26979213026346505  0.8109577802867832  1.0000
  Ti  Ti1       1.0  0.8354479616036751  0.23900722899472693  0.1081614690724274  1.0000
  Ca  Ca1       1.0  0.10205372859082097  0.9229351657111315  0.6699720491483618  1.0000
  O   O2        1.0  0.6418205070093124  0.7675824855708384  0.3902504425905717  1.0000
  O   O3        1.0  0.11481235530929387  0.31603690009696817  0.9407418540471828  1.0000
  Si  Si2       1.0  0.32872823701666115  0.6720853798166646  0.14887514718774492  1.0000
  O   O4        1.0  0.7062198299904496  0.7685529344899976  0.7925575935092332  1.0000
  O   O5        1.0  0.4218652836217758  0.8859479326618378  0.00777864392147154  1.0000
  O   O6        1.0  0.7326237412775075  0.3784586214844897  0.4278148852164065  1.0000
  O   O7        1.0  0.1751902059166889  0.2411395972088025  0.4001835523179072  1.0000
  O   O8        1.0  0.1082838608367159  0.6739655714876789  0.2831971192166662  1.0000
