data_image0
_chemical_formula_structural       CaSiTiO3SiO4
_chemical_formula_sum              "Ca1 Si2 Ti1 O7"
_cell_length_a       4.643109097076955
_cell_length_b       5.40230180618659
_cell_length_c       5.396091461181641
_cell_angle_alpha    102.66355520485598
_cell_angle_beta     96.79689492934166
_cell_angle_gamma    96.88020324388744

_space_group_name_H-M_alt    "P 1"
_space_group_IT_number       1

loop_
  _space_group_symop_operation_xyz
  'x, y, z'

loop_
  _atom_site_type_symbol
  _atom_site_label
  _atom_site_symmetry_multiplicity
  _atom_site_fract_x
  _atom_site_fract_y
  _atom_site_fract_z
  _atom_site_occupancy
  Ca  Ca1       1.0  0.6979690790176392  0.3120400607585907  0.44330292940139765  1.0000
  Si  Si1       1.0  0.2782050371170044  0.8182753324508667  0.5104302167892456  1.0000
  Ti  Ti1       1.0  0.6985806226730347  0.7052518725395203  0.049309935420751565  1.0000
  O   O1        1.0  0.973641276359558  0.6472626328468323  0.3559196889400482  1.0000
  O   O2        1.0  0.497039645910263  0.8914790749549865  0.3086951971054077  1.0000
  O   O3        1.0  0.46119415760040283  0.6914067268371582  0.7218910455703735  1.0000
  Si  Si2       1.0  0.11861225217580795  0.24404080212116244  0.9369530081748961  1.0000
  O   O4        1.0  0.936888575553894  0.03266742825508118  0.06288124620914459  1.0000
  O   O5        1.0  0.4229642748832702  0.39904084801673884  0.1081724092364311  1.0000
  O   O6        1.0  0.1990138739347458  0.1023271754384041  0.6534882187843323  1.0000
  O   O7        1.0  0.8994177579879761  0.4456202387809754  0.8633767962455748  1.0000
