data_image0
_chemical_formula_structural       CaOSiO5Ti
_chemical_formula_sum              "Ca1 O6 Si1 Ti1"
_cell_length_a       4.973083792988529
_cell_length_b       5.013539793474009
_cell_length_c       5.014214515686035
_cell_angle_alpha    119.96589464009006
_cell_angle_beta     89.98020178556011
_cell_angle_gamma    90.07568782938786

_space_group_name_H-M_alt    "P 1"
_space_group_IT_number       1

loop_
  _space_group_symop_operation_xyz
  'x, y, z'

loop_
  _atom_site_type_symbol
  _atom_site_label
  _atom_site_symmetry_multiplicity
  _atom_site_fract_x
  _atom_site_fract_y
  _atom_site_fract_z
  _atom_site_occupancy
  Ca  Ca1       1.0  0.04627611115574837  0.9276058673858641  0.7172479629516602  1.0000
  O   O1        1.0  0.3413262963294983  0.5644918084144592  0.7423964142799377  1.0000
  Si  Si1       1.0  0.546597957611084  0.5937254428863525  0.05082426220178604  1.0000
  O   O2        1.0  0.7510293126106262  0.5653524398803712  0.3291909694671631  1.0000
  O   O3        1.0  0.7515082955360413  0.9024013876914978  0.08097299188375481  1.0000
  O   O4        1.0  0.7508214116096497  0.3149161636829376  0.7420384287834167  1.0000
  O   O5        1.0  0.34165358543395996  0.3161599338054657  0.08025853335857391  1.0000
  O   O6        1.0  0.34152543544769287  0.902435839176178  0.32868865132331854  1.0000
  Ti  Ti1       1.0  0.5464495420455933  0.26077550649642944  0.38410475850105286  1.0000
