data_image0
_chemical_formula_structural       CaTi2OSi2
_chemical_formula_sum              "Ca1 Ti2 O1 Si2"
_cell_length_a       4.107782404047409
_cell_length_b       4.110580769620061
_cell_length_c       5.730016231536865
_cell_angle_alpha    89.91868226601807
_cell_angle_beta     90.0484831851438
_cell_angle_gamma    89.97656812516234

_space_group_name_H-M_alt    "P 1"
_space_group_IT_number       1

loop_
  _space_group_symop_operation_xyz
  'x, y, z'

loop_
  _atom_site_type_symbol
  _atom_site_label
  _atom_site_symmetry_multiplicity
  _atom_site_fract_x
  _atom_site_fract_y
  _atom_site_fract_z
  _atom_site_occupancy
  Ca  Ca1       1.0  0.5203428268432617  0.5218701362609863  0.16254927217960358  1.0000
  Ti  Ti1       1.0  0.5206319093704224  0.02171950787305832  0.6619521379470825  1.0000
  Ti  Ti2       1.0  0.020715998485684395  0.521649181842804  0.6626438498497009  1.0000
  O   O1        1.0  0.520438551902771  0.5217801332473755  0.6632564067840576  1.0000
  Si  Si1       1.0  0.020137887448072433  0.021831713616847992  0.9566207528114319  1.0000
  Si  Si2       1.0  0.020515071228146553  0.02166158147156239  0.367882639169693  1.0000
