data_image0
_chemical_formula_structural       CaSiOTiOCaO4
_chemical_formula_sum              "Ca2 Si1 O6 Ti1"
_cell_length_a       5.266559325574049
_cell_length_b       5.268798859931175
_cell_length_c       5.310545921325684
_cell_angle_alpha    119.79328130231058
_cell_angle_beta     119.76631433362557
_cell_angle_gamma    90.0048665471333

_space_group_name_H-M_alt    "P 1"
_space_group_IT_number       1

loop_
  _space_group_symop_operation_xyz
  'x, y, z'

loop_
  _atom_site_type_symbol
  _atom_site_label
  _atom_site_symmetry_multiplicity
  _atom_site_fract_x
  _atom_site_fract_y
  _atom_site_fract_z
  _atom_site_occupancy
  Ca  Ca1       1.0  0.8942512273788452  0.9595935940742492  0.787929356098175  1.0000
  Si  Si1       1.0  0.6443214416503906  0.20959457755088806  0.2881042957305908  1.0000
  O   O1        1.0  0.44208160042762756  0.9341666698455812  0.2883909940719605  1.0000
  Ti  Ti1       1.0  0.14429081976413727  0.7096267342567444  0.2877078950405121  1.0000
  O   O2        1.0  0.9197717905044556  0.007802725303918124  0.2884231209754944  1.0000
  Ca  Ca2       1.0  0.3945447504520416  0.4593464434146881  0.7883546352386475  1.0000
  O   O3        1.0  0.40513059496879583  0.9706073403358461  0.8094664812088013  1.0000
  O   O4        1.0  0.8833168745040894  0.4489995837211609  0.767218828201294  1.0000
  O   O5        1.0  0.8461953401565552  0.4851864278316498  0.28823164105415344  1.0000
  O   O6        1.0  0.3686502277851105  0.4118146002292633  0.28844431042671204  1.0000
