data_image0
_chemical_formula_structural       O2CaTiSiO2CaSiO3
_chemical_formula_sum              "O7 Ca2 Ti1 Si2"
_cell_length_a       5.553123789668137
_cell_length_b       5.73823877452265
_cell_length_c       6.351451873779297
_cell_angle_alpha    79.1280895420805
_cell_angle_beta     87.79388558153919
_cell_angle_gamma    59.18488996384383

_space_group_name_H-M_alt    "P 1"
_space_group_IT_number       1

loop_
  _space_group_symop_operation_xyz
  'x, y, z'

loop_
  _atom_site_type_symbol
  _atom_site_label
  _atom_site_symmetry_multiplicity
  _atom_site_fract_x
  _atom_site_fract_y
  _atom_site_fract_z
  _atom_site_occupancy
  O   O1        1.0  0.5966623425483703  0.2691500782966614  0.6904697418212891  1.0000
  O   O2        1.0  0.2805332839488983  0.8035014867782593  0.7116710543632507  1.0000
  Ca  Ca1       1.0  0.6438297629356384  0.8727160096168518  0.5861595273017883  1.0000
  Ti  Ti1       1.0  0.32123917341232305  0.7712555527687073  0.03299324959516525  1.0000
  Si  Si1       1.0  0.6461122632026672  0.14268949627876282  0.961190402507782  1.0000
  O   O3        1.0  0.48946598172187805  0.6657406091690063  0.34735655784606934  1.0000
  O   O4        1.0  0.6537948250770569  0.8482273221015929  0.9744309186935425  1.0000
  Ca  Ca2       1.0  0.9552723765373231  0.43666386604309076  0.21177762746810913  1.0000
  Si  Si2       1.0  0.34109315276145935  0.5797821283340454  0.5577680468559265  1.0000
  O   O5        1.0  0.942552924156189  0.08322574943304062  0.06620868295431137  1.0000
  O   O6        1.0  0.3852573335170746  0.37127426266670227  0.0774417370557785  1.0000
  O   O7        1.0  0.0684714913368225  0.562103271484375  0.4978855550289154  1.0000
