data_image0
_chemical_formula_structural       Ca2OTiO5Si
_chemical_formula_sum              "Ca2 O6 Ti1 Si1"
_cell_length_a       5.279678878822716
_cell_length_b       5.284661094440631
_cell_length_c       5.282067775726318
_cell_angle_alpha    60.01131049712632
_cell_angle_beta     60.002632412392245
_cell_angle_gamma    60.0173089009917

_space_group_name_H-M_alt    "P 1"
_space_group_IT_number       1

loop_
  _space_group_symop_operation_xyz
  'x, y, z'

loop_
  _atom_site_type_symbol
  _atom_site_label
  _atom_site_symmetry_multiplicity
  _atom_site_fract_x
  _atom_site_fract_y
  _atom_site_fract_z
  _atom_site_occupancy
  Ca  Ca1       1.0  0.5252014994621277  0.626573920249939  0.11300931870937347  1.0000
  Ca  Ca2       1.0  0.025221414864063263  0.12584468722343445  0.6134401559829712  1.0000
  O   O1        1.0  0.5359852313995361  0.6373552083969116  0.6024209856987  1.0000
  Ti  Ti1       1.0  0.27494093775749207  0.376472145318985  0.8632335066795349  1.0000
  O   O2        1.0  0.5363332033157349  0.11523861438035964  0.6023339629173279  1.0000
  O   O3        1.0  0.5361591577529907  0.11532712727785109  0.12398157268762589  1.0000
  O   O4        1.0  0.01408794242888689  0.6372635364532471  0.6023658514022827  1.0000
  O   O5        1.0  0.014049320481717562  0.6372226476669312  0.12422895431518555  1.0000
  O   O6        1.0  0.01438777893781662  0.11511934548616409  0.1241106241941452  1.0000
  Si  Si1       1.0  0.7751011848449707  0.8762010335922241  0.3632240295410156  1.0000
