data_image0
_chemical_formula_structural       OSi2O3SiOCaTiO2
_chemical_formula_sum              "O7 Si3 Ca1 Ti1"
_cell_length_a       5.108634409112846
_cell_length_b       5.111570854556235
_cell_length_c       8.46345043182373
_cell_angle_alpha    72.4477876224087
_cell_angle_beta     72.50856384626906
_cell_angle_gamma    59.93317491685858

_space_group_name_H-M_alt    "P 1"
_space_group_IT_number       1

loop_
  _space_group_symop_operation_xyz
  'x, y, z'

loop_
  _atom_site_type_symbol
  _atom_site_label
  _atom_site_symmetry_multiplicity
  _atom_site_fract_x
  _atom_site_fract_y
  _atom_site_fract_z
  _atom_site_occupancy
  O   O1        1.0  0.18269971013069153  0.8834892511367798  0.5429461002349854  1.0000
  Si  Si1       1.0  0.27392998337745667  0.5844849944114685  0.44714099168777466  1.0000
  Si  Si2       1.0  0.7527246475219727  0.06069523468613625  0.013896913267672062  1.0000
  O   O2        1.0  0.9716380834579468  0.49056571722030645  0.5430147647857666  1.0000
  O   O3        1.0  0.05841318145394325  0.7821230888366699  0.9287083745002747  1.0000
  O   O4        1.0  0.47403696179389954  0.11783053725957872  0.9276013970375061  1.0000
  Si  Si3       1.0  0.9352797865867615  0.2437538504600525  0.46627339720726013  1.0000
  O   O5        1.0  0.575579822063446  0.27948880195617676  0.5436119437217712  1.0000
  Ca  Ca1       1.0  0.5112909078598024  0.8210399150848389  0.736042320728302  1.0000
  Ti  Ti1       1.0  0.08057542145252225  0.3902668952941895  0.02775798738002777  1.0000
  O   O6        1.0  0.0025516748428344727  0.3114174008369446  0.26127132773399353  1.0000
  O   O7        1.0  0.810593843460083  0.36712595820426946  0.9280402660369873  1.0000
