data_image0
_chemical_formula_structural       CaTiCaOSiO5
_chemical_formula_sum              "Ca2 Ti1 O6 Si1"
_cell_length_a       5.271694629718359
_cell_length_b       5.270275505161716
_cell_length_c       5.278660774230957
_cell_angle_alpha    90.34966041532648
_cell_angle_beta     119.80038546233001
_cell_angle_gamma    119.8750382387751

_space_group_name_H-M_alt    "P 1"
_space_group_IT_number       1

loop_
  _space_group_symop_operation_xyz
  'x, y, z'

loop_
  _atom_site_type_symbol
  _atom_site_label
  _atom_site_symmetry_multiplicity
  _atom_site_fract_x
  _atom_site_fract_y
  _atom_site_fract_z
  _atom_site_occupancy
  Ca  Ca1       1.0  0.9901983737945557  0.933336079120636  0.42383608222007746  1.0000
  Ti  Ti1       1.0  0.49434205889701843  0.6845061779022217  0.679051399230957  1.0000
  Ca  Ca2       1.0  0.9986411929130554  0.43556544184684753  0.9340882897377013  1.0000
  O   O1        1.0  0.4954483211040497  0.4521414339542389  0.969159424304962  1.0000
  Si  Si1       1.0  0.4943951964378357  0.18446990847587585  0.17879509925842285  1.0000
  O   O2        1.0  0.43918052315711975  0.9457982778549194  0.8844147920608519  1.0000
  O   O3        1.0  0.5493757128715515  0.42300426959991455  0.47382512688636774  1.0000
  O   O4        1.0  0.9725853204727173  0.39657992124557495  0.3895400166511535  1.0000
  O   O5        1.0  0.49290990829467773  0.9162916541099548  0.3888359665870666  1.0000
  O   O6        1.0  0.01564460061490526  0.9727819561958312  0.9684572219848631  1.0000
