data_image0
_chemical_formula_structural       SiO6TiCaOSiO
_chemical_formula_sum              "Si2 O8 Ti1 Ca1"
_cell_length_a       5.639950184582648
_cell_length_b       5.639699001373452
_cell_length_c       5.646292209625244
_cell_angle_alpha    106.49536747780452
_cell_angle_beta     106.54832774203368
_cell_angle_gamma    115.35496744986368

_space_group_name_H-M_alt    "P 1"
_space_group_IT_number       1

loop_
  _space_group_symop_operation_xyz
  'x, y, z'

loop_
  _atom_site_type_symbol
  _atom_site_label
  _atom_site_symmetry_multiplicity
  _atom_site_fract_x
  _atom_site_fract_y
  _atom_site_fract_z
  _atom_site_occupancy
  Si  Si1       1.0  0.3273641765117645  0.7867873907089233  0.5370932817459106  1.0000
  O   O1        1.0  0.9143479466438293  0.07327191531658173  0.2367265522480011  1.0000
  O   O2        1.0  0.9152321815490723  0.6745167374610901  0.8384208083152771  1.0000
  O   O3        1.0  0.03981291130185127  0.1994885355234146  0.8383120894432068  1.0000
  O   O4        1.0  0.4391854405403137  0.19879154860973355  0.2366955280303955  1.0000
  O   O5        1.0  0.3137892484664917  0.5997583270072937  0.7107083797454834  1.0000
  O   O6        1.0  0.966735064983368  0.5993382930755614  0.3634833395481111  1.0000
  Ti  Ti1       1.0  0.8261898756027222  0.28528764843940735  0.537608802318573  1.0000
  Ca  Ca1       1.0  0.5771088600158691  0.5362314581871033  0.03728948533535011  1.0000
  O   O7        1.0  0.5134156346321106  0.14681167900562286  0.7096930742263794  1.0000
  Si  Si2       1.0  0.07697169482707977  0.03597604110836983  0.03692030906677246  1.0000
  O   O8        1.0  0.5140553116798401  0.799246072769165  0.36360427737236023  1.0000
