data_image259
_chemical_formula_structural       Ca2TiO4SiO2
_chemical_formula_sum              "Ca2 Ti1 O6 Si1"
_cell_length_a       5.264007237701375
_cell_length_b       5.2632841376348765
_cell_length_c       5.292298316955566
_cell_angle_alpha    119.87879795649745
_cell_angle_beta     119.87287857937015
_cell_angle_gamma    90.04789061224396

_space_group_name_H-M_alt    "P 1"
_space_group_IT_number       1

loop_
  _space_group_symop_operation_xyz
  'x, y, z'

loop_
  _atom_site_type_symbol
  _atom_site_label
  _atom_site_symmetry_multiplicity
  _atom_site_fract_x
  _atom_site_fract_y
  _atom_site_fract_z
  _atom_site_occupancy
  Ca  Ca1       1.0  0.13627150654792786  0.2474943548440933  0.31896501779556274  1.0000
  Ca  Ca2       1.0  0.6361042857170105  0.7475802302360534  0.31893613934516907  1.0000
  Ti  Ti1       1.0  0.8862647414207458  0.49739426374435425  0.8186125755310059  1.0000
  O   O1        1.0  0.5932736396789551  0.7260631918907166  0.8193062543869019  1.0000
  O   O2        1.0  0.11535397917032242  0.791135311126709  0.819083034992218  1.0000
  O   O3        1.0  0.1802138239145279  0.2690417170524597  0.819007933139801  1.0000
  O   O4        1.0  0.14710325002670288  0.7581880688667297  0.3398534059524536  1.0000
  Si  Si1       1.0  0.38655731081962585  0.9975686073303222  0.8190722465515137  1.0000
  O   O5        1.0  0.6578700542449951  0.20390161871910095  0.8189467787742615  1.0000
  O   O6        1.0  0.6255702376365662  0.23671369254589078  0.29808592796325684  1.0000
