data_image392
_chemical_formula_structural       TiOSiCaTiO7
_chemical_formula_sum              "Ti2 O8 Si1 Ca1"
_cell_length_a       5.18340590049467
_cell_length_b       5.182227057512993
_cell_length_c       6.779159069061279
_cell_angle_alpha    91.11798145953941
_cell_angle_beta     91.13480427446396
_cell_angle_gamma    65.89888131426731

_space_group_name_H-M_alt    "P 1"
_space_group_IT_number       1

loop_
  _space_group_symop_operation_xyz
  'x, y, z'

loop_
  _atom_site_type_symbol
  _atom_site_label
  _atom_site_symmetry_multiplicity
  _atom_site_fract_x
  _atom_site_fract_y
  _atom_site_fract_z
  _atom_site_occupancy
  Ti  Ti1       1.0  0.746600866317749  0.8410590291023256  0.4063337743282318  1.0000
  O   O1        1.0  0.5241249799728394  0.6199907660484314  0.47508883476257324  1.0000
  Si  Si1       1.0  0.3820265829563141  0.4774065315723419  0.6289077997207642  1.0000
  Ca  Ca1       1.0  0.7437716722488403  0.8387576341629029  0.8987563252449036  1.0000
  Ti  Ti2       1.0  0.10206066817045212  0.19772234559059143  0.179984912276268  1.0000
  O   O2        1.0  0.032908853143453556  0.6224972605705262  0.6131440997123718  1.0000
  O   O3        1.0  0.4736354351043701  0.5693519711494446  0.8361717462539673  1.0000
  O   O4        1.0  0.008834043517708773  0.10400456190109254  0.9453844428062439  1.0000
  O   O5        1.0  0.9584401845932007  0.054070327430963516  0.3606075048446655  1.0000
  O   O6        1.0  0.48580464720726013  0.04071277379989624  0.19362738728523254  1.0000
  O   O7        1.0  0.5270057320594788  0.12874048948287964  0.6128904819488525  1.0000
  O   O8        1.0  0.9446952939033508  0.5813842415809631  0.1934858113527298  1.0000
