data_image199
_chemical_formula_structural       OCaOCaO3SiO2TiOSiO
_chemical_formula_sum              "O9 Ca2 Si2 Ti1"
_cell_length_a       5.055114160143241
_cell_length_b       5.9525320201946785
_cell_length_c       6.847474575042725
_cell_angle_alpha    102.0299190910202
_cell_angle_beta     97.1973698317279
_cell_angle_gamma    90.47041098150348

_space_group_name_H-M_alt    "P 1"
_space_group_IT_number       1

loop_
  _space_group_symop_operation_xyz
  'x, y, z'

loop_
  _atom_site_type_symbol
  _atom_site_label
  _atom_site_symmetry_multiplicity
  _atom_site_fract_x
  _atom_site_fract_y
  _atom_site_fract_z
  _atom_site_occupancy
  O   O1        1.0  0.946830689907074  0.32504490017890925  0.8909667730331422  1.0000
  Ca  Ca1       1.0  0.5598852634429932  0.6986910104751587  0.3854240775108338  1.0000
  O   O2        1.0  0.22191138565540314  0.7328474521636962  0.9632462263107301  1.0000
  Ca  Ca2       1.0  0.16439419984817505  0.12867654860019684  0.1355082392692566  1.0000
  O   O3        1.0  0.11905282735824585  0.03685807064175605  0.48794171214103704  1.0000
  O   O4        1.0  0.5470518469810486  0.5552858710289001  0.6783375144004822  1.0000
  O   O5        1.0  0.8888242244720459  0.976854681968689  0.5633828043937683  1.0000
  Si  Si1       1.0  0.5084934830665588  0.7513729929924011  0.8735648393630983  1.0000
  O   O6        1.0  0.1463995724916458  0.5238973498344421  0.2558259963989258  1.0000
  O   O7        1.0  0.5180733799934387  0.013776125386357307  0.84931617975235  1.0000
  Ti  Ti1       1.0  0.6486752033233643  0.20550096035003662  0.6772285103797913  1.0000
  O   O8        1.0  0.41451162099838257  0.08174291253089905  0.4201431572437287  1.0000
  Si  Si2       1.0  0.015427726320922375  0.5675205588340759  0.04647138714790343  1.0000
  O   O9        1.0  0.7408646941184998  0.723979890346527  0.06682021170854566  1.0000
