data_image34
_chemical_formula_structural       CaTiSiCaO6
_chemical_formula_sum              "Ca2 Ti1 Si1 O6"
_cell_length_a       5.316822001702193
_cell_length_b       5.315631620259848
_cell_length_c       5.317737102508545
_cell_angle_alpha    59.83259613267879
_cell_angle_beta     59.8453056691017
_cell_angle_gamma    59.808520266185454

_space_group_name_H-M_alt    "P 1"
_space_group_IT_number       1

loop_
  _space_group_symop_operation_xyz
  'x, y, z'

loop_
  _atom_site_type_symbol
  _atom_site_label
  _atom_site_symmetry_multiplicity
  _atom_site_fract_x
  _atom_site_fract_y
  _atom_site_fract_z
  _atom_site_occupancy
  Ca  Ca1       1.0  0.20698122680187225  0.7245885133743286  0.6245768666267395  1.0000
  Ti  Ti1       1.0  0.45684814453125  0.9745826721191406  0.8742812275886536  1.0000
  Si  Si1       1.0  0.9569580554962158  0.4746496677398682  0.37431928515434254  1.0000
  Ca  Ca2       1.0  0.707105815410614  0.2247069776058197  0.12462290376424798  1.0000
  O   O1        1.0  0.7182238698005676  0.23554585874080655  0.6135619282722472  1.0000
  O   O2        1.0  0.19611117243766785  0.713495135307312  0.13571570813655853  1.0000
  O   O3        1.0  0.7182483077049255  0.713400661945343  0.13557560741901398  1.0000
  O   O4        1.0  0.7182239294052124  0.713490903377533  0.6136429905891418  1.0000
  O   O5        1.0  0.19609983265399933  0.23562116920948029  0.1355239748954773  1.0000
  O   O6        1.0  0.1961193680763245  0.2354728877544403  0.613821804523468  1.0000
