data_image299
_chemical_formula_structural       TiOSiCaSiO7
_chemical_formula_sum              "Ti1 O8 Si2 Ca1"
_cell_length_a       5.646136286810959
_cell_length_b       5.646932828473837
_cell_length_c       5.648748874664307
_cell_angle_alpha    106.43584736477482
_cell_angle_beta     106.52188685778557
_cell_angle_gamma    115.4811925069353

_space_group_name_H-M_alt    "P 1"
_space_group_IT_number       1

loop_
  _space_group_symop_operation_xyz
  'x, y, z'

loop_
  _atom_site_type_symbol
  _atom_site_label
  _atom_site_symmetry_multiplicity
  _atom_site_fract_x
  _atom_site_fract_y
  _atom_site_fract_z
  _atom_site_occupancy
  Ti  Ti1       1.0  0.1958930790424347  0.5963926315307617  0.4943030476570129  1.0000
  O   O1        1.0  0.8820717930793762  0.45722112059593195  0.6665229201316833  1.0000
  Si  Si1       1.0  0.6949336528778076  0.09673694521188736  0.49354094266891474  1.0000
  Ca  Ca1       1.0  0.9452639818191528  0.8469615578651428  0.9939959049224852  1.0000
  Si  Si2       1.0  0.44555920362472534  0.34694945812225336  0.9940409660339354  1.0000
  O   O2        1.0  0.8073548674583435  0.5101287364959717  0.192668542265892  1.0000
  O   O3        1.0  0.28187584877014155  0.3825704157352447  0.19247506558895106  1.0000
  O   O4        1.0  0.4091246426105499  0.5098158121109009  0.794378101825714  1.0000
  O   O5        1.0  0.2821812629699707  0.9848209619522095  0.7952814698219298  1.0000
  O   O6        1.0  0.33439558744430536  0.9086566567420958  0.32186266779899586  1.0000
  O   O7        1.0  0.6796958446502684  0.9087159037590026  0.6664497852325438  1.0000
  O   O8        1.0  0.883078396320343  0.11149977147579193  0.3211307823657989  1.0000
