data_image116
_chemical_formula_structural       O3TiCaO2SiO2SiO
_chemical_formula_sum              "O8 Ti1 Ca1 Si2"
_cell_length_a       5.861484218712745
_cell_length_b       6.5050798118101705
_cell_length_c       5.5911126136779785
_cell_angle_alpha    96.98398038777701
_cell_angle_beta     77.18705309753146
_cell_angle_gamma    70.96455195540617

_space_group_name_H-M_alt    "P 1"
_space_group_IT_number       1

loop_
  _space_group_symop_operation_xyz
  'x, y, z'

loop_
  _atom_site_type_symbol
  _atom_site_label
  _atom_site_symmetry_multiplicity
  _atom_site_fract_x
  _atom_site_fract_y
  _atom_site_fract_z
  _atom_site_occupancy
  O   O1        1.0  0.7878183722496033  0.31984466314315796  0.27359527349472046  1.0000
  O   O2        1.0  0.18097984790802  0.6542227864265442  0.7903853058815002  1.0000
  O   O3        1.0  0.5726909637451171  0.6599327921867371  0.012890360318124319  1.0000
  Ti  Ti1       1.0  0.7332667708396912  0.09270513057708739  0.4882180094718933  1.0000
  Ca  Ca1       1.0  0.05187878012657165  0.4431280493736267  0.5307087898254395  1.0000
  O   O4        1.0  0.33164033293724066  0.43583226203918457  0.14677023887634277  1.0000
  O   O5        1.0  0.7933874130249023  0.2420079708099365  0.7787739634513855  1.0000
  Si  Si1       1.0  0.6440109610557556  0.3890480399131775  0.06244269758462908  1.0000
  O   O6        1.0  0.41638946533203125  0.15501908957958221  0.5126941800117493  1.0000
  O   O7        1.0  0.07124225795269017  0.89988774061203  0.24965788424015045  1.0000
  Si  Si2       1.0  0.26799815893173223  0.6818918585777283  0.03829749673604966  1.0000
  O   O8        1.0  0.8271749019622805  0.7897067070007323  0.4904738962650299  1.0000
