data_image517
_chemical_formula_structural       TiSiOCaOCa
_chemical_formula_sum              "Ti1 Si1 O2 Ca2"
_cell_length_a       3.357129771350904
_cell_length_b       3.3560215323528073
_cell_length_c       9.323677062988281
_cell_angle_alpha    100.37753347204469
_cell_angle_beta     100.41312458423144
_cell_angle_gamma    90.00754957286927

_space_group_name_H-M_alt    "P 1"
_space_group_IT_number       1

loop_
  _space_group_symop_operation_xyz
  'x, y, z'

loop_
  _atom_site_type_symbol
  _atom_site_label
  _atom_site_symmetry_multiplicity
  _atom_site_fract_x
  _atom_site_fract_y
  _atom_site_fract_z
  _atom_site_occupancy
  Ti  Ti1       1.0  0.8653826117515565  0.3994513750076294  0.04826893284916879  1.0000
  Si  Si1       1.0  0.4100713133811951  0.9434236288070679  0.1381046175956726  1.0000
  O   O1        1.0  0.10600686818361284  0.6404122114181519  0.5366261005401611  1.0000
  Ca  Ca1       1.0  0.5782087445259094  0.1126028820872307  0.48093196749687195  1.0000
  O   O2        1.0  0.754046380519867  0.28773170709609985  0.8298454284667969  1.0000
  Ca  Ca2       1.0  0.23192380368709567  0.7662297487258912  0.7865641117095947  1.0000
