data_image463
_chemical_formula_structural       Ti2SiCaOTiO6CaO
_chemical_formula_sum              "Ti3 Si1 Ca2 O8"
_cell_length_a       5.434825195222532
_cell_length_b       6.21118410319732
_cell_length_c       6.496092796325684
_cell_angle_alpha    81.71518158884169
_cell_angle_beta     92.74599827679639
_cell_angle_gamma    77.6777739277619

_space_group_name_H-M_alt    "P 1"
_space_group_IT_number       1

loop_
  _space_group_symop_operation_xyz
  'x, y, z'

loop_
  _atom_site_type_symbol
  _atom_site_label
  _atom_site_symmetry_multiplicity
  _atom_site_fract_x
  _atom_site_fract_y
  _atom_site_fract_z
  _atom_site_occupancy
  Ti  Ti1       1.0  0.44347885251045227  0.10714790225028992  0.41023847460746765  1.0000
  Ti  Ti2       1.0  0.30635103583335876  0.6893829703330994  0.5177029371261597  1.0000
  Si  Si1       1.0  0.8110789656639099  0.7422192096710205  0.7999391555786133  1.0000
  Ca  Ca1       1.0  0.8218328952789307  0.4749717116355896  0.30719971656799316  1.0000
  O   O1        1.0  0.10038603097200395  0.6187804937362671  0.7419479489326477  1.0000
  Ti  Ti3       1.0  0.004632768221199505  0.9927834272384645  0.17017772793769836  1.0000
  O   O2        1.0  0.8196637034416199  0.9761389493942261  0.8886765241622925  1.0000
  O   O3        1.0  0.11163406074047084  0.6959270238876344  0.2661730647087097  1.0000
  O   O4        1.0  0.185712993144989  0.22101448476314545  0.17605488002300262  1.0000
  O   O5        1.0  0.686199963092804  0.5757268071174623  0.9582552313804625  1.0000
  O   O6        1.0  0.4735288918018341  0.3665688037872315  0.5410569310188293  1.0000
  O   O7        1.0  0.69753497838974  0.15536092221736908  0.23448726534843445  1.0000
  Ca  Ca2       1.0  0.4582059681415558  0.3072996139526367  0.907831072807312  1.0000
  O   O8        1.0  0.6237819194793702  0.8022543787956238  0.5698775053024292  1.0000
