data_image205
_chemical_formula_structural       TiSiO2CaSiO6
_chemical_formula_sum              "Ti1 Si2 O8 Ca1"
_cell_length_a       5.076921378520803
_cell_length_b       5.0819168715299226
_cell_length_c       6.826578617095947
_cell_angle_alpha    89.57577263017548
_cell_angle_beta     89.5015967654656
_cell_angle_gamma    64.63056852762676

_space_group_name_H-M_alt    "P 1"
_space_group_IT_number       1

loop_
  _space_group_symop_operation_xyz
  'x, y, z'

loop_
  _atom_site_type_symbol
  _atom_site_label
  _atom_site_symmetry_multiplicity
  _atom_site_fract_x
  _atom_site_fract_y
  _atom_site_fract_z
  _atom_site_occupancy
  Ti  Ti1       1.0  0.7733930349349976  0.2728366255760193  0.7027336955070494  1.0000
  Si  Si1       1.0  0.4164935350418091  0.9153749346733093  0.4730820059776306  1.0000
  O   O1        1.0  0.046827655285596854  0.5475478172302246  0.15120340883731842  1.0000
  O   O2        1.0  0.9851241111755371  0.9849479794502259  0.9102820754051208  1.0000
  Ca  Ca1       1.0  0.7734553217887877  0.27326253056526184  0.2025478184223175  1.0000
  Si  Si2       1.0  0.12920841574668882  0.629300057888031  0.9320319890975952  1.0000
  O   O3        1.0  0.5610008835792542  0.5606860518455505  0.49478811025619507  1.0000
  O   O4        1.0  0.49949586391448975  4.449952393770218e-05  0.25485172867774963  1.0000
  O   O5        1.0  0.5559462904930115  0.05583729594945907  0.6330571174621582  1.0000
  O   O6        1.0  0.4852583110332489  0.4847489893436432  0.9103850722312927  1.0000
  O   O7        1.0  0.06083788722753525  0.060596294701099396  0.4944765567779541  1.0000
  O   O8        1.0  0.9903232455253601  0.4894242286682129  0.7724280953407288  1.0000
