data_image539
_chemical_formula_structural       TiCaOSiCaOTiOCaOTiO4TiO4
_chemical_formula_sum              "Ti4 Ca3 O12 Si1"
_cell_length_a       5.1012803004623475
_cell_length_b       6.26344173594928
_cell_length_c       9.776383399963379
_cell_angle_alpha    75.57874057126742
_cell_angle_beta     78.17741643117425
_cell_angle_gamma    68.53508160025346

_space_group_name_H-M_alt    "P 1"
_space_group_IT_number       1

loop_
  _space_group_symop_operation_xyz
  'x, y, z'

loop_
  _atom_site_type_symbol
  _atom_site_label
  _atom_site_symmetry_multiplicity
  _atom_site_fract_x
  _atom_site_fract_y
  _atom_site_fract_z
  _atom_site_occupancy
  Ti  Ti1       1.0  0.9394298791885376  0.3663468658924102  0.38978347182273865  1.0000
  Ca  Ca1       1.0  0.7585660219192505  0.1386505514383316  0.7297835946083069  1.0000
  O   O1        1.0  0.009161062538623818  0.3542482852935791  0.567224383354187  1.0000
  Si  Si1       1.0  0.1145204156637192  0.23380476236343384  0.967201590538025  1.0000
  Ca  Ca2       1.0  0.4697079658508301  0.6818040013313293  0.8664780259132385  1.0000
  O   O2        1.0  0.029589414596557628  0.7828003764152527  0.8102065324783325  1.0000
  Ti  Ti2       1.0  0.5491161346435548  0.9082128405570984  0.4388679265975952  1.0000
  O   O3        1.0  0.40699300169944763  0.03592749312520027  0.9097757935523988  1.0000
  Ca  Ca3       1.0  0.8508872389793396  0.7680041193962097  0.07110592722892761  1.0000
  O   O4        1.0  0.6893026232719421  0.21716342866420746  0.3776131272315979  1.0000
  Ti  Ti3       1.0  0.03196780011057852  0.6259845495223999  0.6575740575790405  1.0000
  O   O5        1.0  0.6835813522338868  0.8561887741088867  0.6217011213302612  1.0000
  O   O6        1.0  0.921633780002594  0.38361701369285583  0.8325071334838867  1.0000
  O   O7        1.0  0.31015059351921076  0.717558264732361  0.5332193374633789  1.0000
  O   O8        1.0  0.2097259759902954  0.40157678723335266  0.043015096336603165  1.0000
  Ti  Ti4       1.0  0.5319355130195618  0.30173468589782715  0.18305213749408722  1.0000
  O   O9        1.0  0.5182011723518372  0.597804844379425  0.11599700152873994  1.0000
  O   O10       1.0  0.8836453557014465  0.11797188222408295  0.0785343274474144  1.0000
  O   O11       1.0  0.8168613314628601  0.6974116563796997  0.3220434784889221  1.0000
  O   O12       1.0  0.2739867568016052  0.15587906539440155  0.31707385182380676  1.0000
