data_image50
_chemical_formula_structural       TiCa2O5SiO
_chemical_formula_sum              "Ti1 Ca2 O6 Si1"
_cell_length_a       5.2860209517124
_cell_length_b       5.2855085333065315
_cell_length_c       5.288046836853027
_cell_angle_alpha    60.18026492601484
_cell_angle_beta     60.17887913041455
_cell_angle_gamma    60.191412651870436

_space_group_name_H-M_alt    "P 1"
_space_group_IT_number       1

loop_
  _space_group_symop_operation_xyz
  'x, y, z'

loop_
  _atom_site_type_symbol
  _atom_site_label
  _atom_site_symmetry_multiplicity
  _atom_site_fract_x
  _atom_site_fract_y
  _atom_site_fract_z
  _atom_site_occupancy
  Ti  Ti1       1.0  0.4074857831001281  0.5660472512245178  0.9889608025550842  1.0000
  Ca  Ca1       1.0  0.15619710087776184  0.31535452604293823  0.7373802065849304  1.0000
  Ca  Ca2       1.0  0.6587339043617249  0.8170660138130188  0.2410232126712799  1.0000
  O   O1        1.0  0.7157729268074036  0.3052695691585541  0.2029794454574585  1.0000
  O   O2        1.0  0.6694338321685791  0.3510516583919525  0.6822519302368164  1.0000
  O   O3        1.0  0.19301939010620117  0.25844869017601013  0.25283268094062805  1.0000
  O   O4        1.0  0.6222273707389832  0.8735611438751221  0.725773274898529  1.0000
  O   O5        1.0  0.14595344662666315  0.7809816598892213  0.2962752878665923  1.0000
  Si  Si1       1.0  0.9075581431388855  0.06595666706562042  0.489343523979187  1.0000
  O   O6        1.0  0.09954257309436798  0.8267982602119446  0.775597333908081  1.0000
