data_image318
_chemical_formula_structural       CaTiSiO
_chemical_formula_sum              "Ca1 Ti1 Si1 O1"
_cell_length_a       3.8668401699445227
_cell_length_b       3.869576273378163
_cell_length_c       5.9065399169921875
_cell_angle_alpha    90.05412492484342
_cell_angle_beta     90.0411953739236
_cell_angle_gamma    120.07168037890698

_space_group_name_H-M_alt    "P 1"
_space_group_IT_number       1

loop_
  _space_group_symop_operation_xyz
  'x, y, z'

loop_
  _atom_site_type_symbol
  _atom_site_label
  _atom_site_symmetry_multiplicity
  _atom_site_fract_x
  _atom_site_fract_y
  _atom_site_fract_z
  _atom_site_occupancy
  Ca  Ca1       1.0  0.02737027034163475  0.3518703877925873  0.751733124256134  1.0000
  Ti  Ti1       1.0  0.6941527724266052  0.6854118704795837  0.2923729419708252  1.0000
  Si  Si1       1.0  0.3609839677810669  0.018107406795024872  0.11673480272293092  1.0000
  O   O1        1.0  0.6943607926368713  0.6853569746017456  0.5998368859291077  1.0000
