data_image304
_chemical_formula_structural       OTi2CaO2SiO3
_chemical_formula_sum              "O6 Ti2 Ca1 Si1"
_cell_length_a       5.537746133416963
_cell_length_b       5.811041542847219
_cell_length_c       5.8237223625183105
_cell_angle_alpha    116.87398982083516
_cell_angle_beta     89.98535857834487
_cell_angle_gamma    89.95581117625575

_space_group_name_H-M_alt    "P 1"
_space_group_IT_number       1

loop_
  _space_group_symop_operation_xyz
  'x, y, z'

loop_
  _atom_site_type_symbol
  _atom_site_label
  _atom_site_symmetry_multiplicity
  _atom_site_fract_x
  _atom_site_fract_y
  _atom_site_fract_z
  _atom_site_occupancy
  O   O1        1.0  0.4888133704662323  0.8577691316604614  0.2874726355075836  1.0000
  Ti  Ti1       1.0  0.32470330595970154  0.963643968105316  0.5981738567352295  1.0000
  Ti  Ti2       1.0  0.6834158301353455  0.962337553501129  0.09771228581666948  1.0000
  Ca  Ca1       1.0  0.32735055685043335  0.4633559882640838  0.09861551225185396  1.0000
  O   O2        1.0  0.16586819291114807  0.28669974207878113  0.689910888671875  1.0000
  O   O3        1.0  0.8370208740234375  0.2682460844516754  0.34114474058151245  1.0000
  Si  Si1       1.0  0.9916090965270996  0.4622801840305328  0.5979409217834473  1.0000
  O   O4        1.0  0.4879710376262665  0.06851694732904433  0.9080645442008973  1.0000
  O   O5        1.0  0.16457712650299072  0.6400617361068724  0.5070087909698486  1.0000
  O   O6        1.0  0.8371658325195312  0.6563225984573363  0.8560723662376405  1.0000
