data_image582
_chemical_formula_structural       Ca3OCaSiOTiO3SiO2TiO5
_chemical_formula_sum              "Ca4 O12 Si2 Ti2"
_cell_length_a       5.690523308472053
_cell_length_b       7.726284305439086
_cell_length_c       6.739444732666016
_cell_angle_alpha    70.84475621708994
_cell_angle_beta     77.38195291526378
_cell_angle_gamma    78.16068314679471

_space_group_name_H-M_alt    "P 1"
_space_group_IT_number       1

loop_
  _space_group_symop_operation_xyz
  'x, y, z'

loop_
  _atom_site_type_symbol
  _atom_site_label
  _atom_site_symmetry_multiplicity
  _atom_site_fract_x
  _atom_site_fract_y
  _atom_site_fract_z
  _atom_site_occupancy
  Ca  Ca1       1.0  0.874522089958191  0.5708510875701904  0.7514477968215942  1.0000
  Ca  Ca2       1.0  0.7479601502418518  0.989351212978363  0.804813802242279  1.0000
  Ca  Ca3       1.0  0.9930245280265809  0.449401319026947  0.2859249413013458  1.0000
  O   O1        1.0  0.40473014116287237  0.5215140581130981  0.10765954852104183  1.0000
  Ca  Ca4       1.0  0.4270530045032502  0.8392846584320067  0.4393700659275055  1.0000
  Si  Si1       1.0  0.48826023936271673  0.3802063465118408  0.5838482975959778  1.0000
  O   O2        1.0  0.978765904903412  0.8929544091224669  0.514371633529663  1.0000
  Ti  Ti1       1.0  0.5377897024154663  0.2627476155757904  0.13356652855873105  1.0000
  O   O3        1.0  0.24857886135578158  0.16890150308609006  0.281384140253067  1.0000
  O   O4        1.0  0.8802354335784913  0.3063165545463562  0.06534563750028603  1.0000
  O   O5        1.0  0.7089146971702576  0.9976515769958495  0.1741524040699005  1.0000
  Si  Si2       1.0  0.29210910201072693  0.732988715171814  0.9792301654815674  1.0000
  O   O6        1.0  0.4930440485477448  0.8072826266288757  0.7727132439613342  1.0000
  O   O7        1.0  0.02012648619711399  0.7137490510940552  0.9484879970550537  1.0000
  Ti  Ti2       1.0  0.9968026876449586  0.042786195874214165  0.24213251471519465  1.0000
  O   O8        1.0  0.2506483495235443  0.8757892847061157  0.123648814857006  1.0000
  O   O9        1.0  0.20263276994228366  0.4546352922916412  0.5624949932098389  1.0000
  O   O10       1.0  0.5250110030174255  0.2756103575229645  0.8392044901847839  1.0000
  O   O11       1.0  0.6557942032814026  0.5507006049156189  0.5003962516784668  1.0000
  O   O12       1.0  0.6327198147773743  0.22976766526699063  0.4578910171985626  1.0000
