data_image219
_chemical_formula_structural       CaSiOTiOCaOTiSiO7
_chemical_formula_sum              "Ca2 Si2 O10 Ti2"
_cell_length_a       5.507272813846823
_cell_length_b       5.503072115252673
_cell_length_c       7.122066974639893
_cell_angle_alpha    104.02979189265099
_cell_angle_beta     104.11722492709904
_cell_angle_gamma    105.77608510941624

_space_group_name_H-M_alt    "P 1"
_space_group_IT_number       1

loop_
  _space_group_symop_operation_xyz
  'x, y, z'

loop_
  _atom_site_type_symbol
  _atom_site_label
  _atom_site_symmetry_multiplicity
  _atom_site_fract_x
  _atom_site_fract_y
  _atom_site_fract_z
  _atom_site_occupancy
  Ca  Ca1       1.0  0.34415003657341003  0.07984590530395506  0.3659432530403137  1.0000
  Si  Si1       1.0  0.3336472511291504  0.09063626825809479  0.8656890988349916  1.0000
  O   O1        1.0  0.3278316259384155  0.29796022176742554  0.7331315279006958  1.0000
  Ti  Ti1       1.0  0.014231632463633999  0.40958753228187555  0.61602383852005  1.0000
  O   O2        1.0  0.9446735978126526  0.47902941703796387  0.8659067749977113  1.0000
  Ca  Ca2       1.0  0.6853930354118347  0.7387565374374389  0.8656962513923646  1.0000
  O   O3        1.0  0.39370673894882197  0.6595288515090941  0.2070220112800598  1.0000
  Ti  Ti2       1.0  0.01446624007076025  0.40946805477142334  0.11583563685417177  1.0000
  Si  Si2       1.0  0.6954208016395569  0.7285794615745544  0.3657646179199219  1.0000
  O   O4        1.0  0.7012147903442383  0.5209720134735106  0.49838620424270635  1.0000
  O   O5        1.0  0.08473698794841766  0.3395336866378784  0.3657257556915283  1.0000
  O   O6        1.0  0.7649998664855957  0.030132457613945004  0.5250825881958008  1.0000
  O   O7        1.0  0.9026052951812744  0.7227165102958679  0.23325237631797793  1.0000
  O   O8        1.0  0.6357991099357605  0.16000308096408844  0.025167163461446762  1.0000
  O   O9        1.0  0.1264524608850479  0.09620673954486846  0.998366415500641  1.0000
  O   O10       1.0  0.2642546594142913  0.7884787321090697  0.706668496131897  1.0000
