data_image230
_chemical_formula_structural       SiOCaSiO3CaTiO2
_chemical_formula_sum              "Si2 O6 Ca2 Ti1"
_cell_length_a       3.7652904060238703
_cell_length_b       3.7652278159885877
_cell_length_c       9.417099952697754
_cell_angle_alpha    101.52195820534013
_cell_angle_beta     101.55250923197647
_cell_angle_gamma    90.01879925809264

_space_group_name_H-M_alt    "P 1"
_space_group_IT_number       1

loop_
  _space_group_symop_operation_xyz
  'x, y, z'

loop_
  _atom_site_type_symbol
  _atom_site_label
  _atom_site_symmetry_multiplicity
  _atom_site_fract_x
  _atom_site_fract_y
  _atom_site_fract_z
  _atom_site_occupancy
  Si  Si1       1.0  0.6030541658401489  0.5590059757232666  0.22631748020648956  1.0000
  O   O1        1.0  0.09679597616195677  0.5513728857040404  0.21166299283504486  1.0000
  Ca  Ca1       1.0  0.1930408477783203  0.14765258133411405  0.4044693410396576  1.0000
  Si  Si2       1.0  0.012497209012508394  0.9670754671096802  0.04395614564418791  1.0000
  O   O2        1.0  0.31460490822792053  0.2684882879257202  0.6474677920341492  1.0000
  O   O3        1.0  0.7041909694671631  0.658406138420105  0.42651617527008057  1.0000
  O   O4        1.0  0.929472804069519  0.3826847374439239  0.8774182200431824  1.0000
  Ca  Ca2       1.0  0.8291490077972411  0.7830447554588317  0.675835371017456  1.0000
  Ti  Ti1       1.0  0.4227832853794098  0.37584421038627625  0.8622199892997742  1.0000
  O   O5        1.0  0.596413254737854  0.051517304033041  0.21181723475456238  1.0000
  O   O6        1.0  0.42991864681243896  0.8827603459358214  0.8773505687713623  1.0000
