data_image598
_chemical_formula_structural       O2SiOTiCaOTiO
_chemical_formula_sum              "O5 Si1 Ti2 Ca1"
_cell_length_a       4.362526437000209
_cell_length_b       5.516965135723565
_cell_length_c       5.7027482986450195
_cell_angle_alpha    76.75562383193008
_cell_angle_beta     72.14657625652154
_cell_angle_gamma    69.94734233706747

_space_group_name_H-M_alt    "P 1"
_space_group_IT_number       1

loop_
  _space_group_symop_operation_xyz
  'x, y, z'

loop_
  _atom_site_type_symbol
  _atom_site_label
  _atom_site_symmetry_multiplicity
  _atom_site_fract_x
  _atom_site_fract_y
  _atom_site_fract_z
  _atom_site_occupancy
  O   O1        1.0  0.906327784061432  0.3862004280090332  0.432224839925766  1.0000
  O   O2        1.0  0.6446471810340881  0.32161054015159607  0.1075406670570374  1.0000
  Si  Si1       1.0  0.728586733341217  0.5484132170677185  0.20486323535442352  1.0000
  O   O3        1.0  0.9641744494438171  0.697709321975708  0.9853280186653137  1.0000
  Ti  Ti1       1.0  0.06624369323253629  0.9903690814971924  0.07597626745700836  1.0000
  Ca  Ca1       1.0  0.439034104347229  0.44841995835304255  0.7544930577278137  1.0000
  O   O4        1.0  0.3161103129386902  0.07946731150150299  0.7424113750457764  1.0000
  Ti  Ti2       1.0  0.34417399764060974  0.10812676697969435  0.39630159735679626  1.0000
  O   O5        1.0  0.3657311797142029  0.7623476386070251  0.31758490204811096  1.0000
