data_image11
_chemical_formula_structural       CaSiO2TiO2SiO4
_chemical_formula_sum              "Ca1 Si2 O8 Ti1"
_cell_length_a       5.64865216358816
_cell_length_b       5.6460344443242665
_cell_length_c       5.645788192749023
_cell_angle_alpha    106.52163569280685
_cell_angle_beta     106.49978503553935
_cell_angle_gamma    115.51008189592251

_space_group_name_H-M_alt    "P 1"
_space_group_IT_number       1

loop_
  _space_group_symop_operation_xyz
  'x, y, z'

loop_
  _atom_site_type_symbol
  _atom_site_label
  _atom_site_symmetry_multiplicity
  _atom_site_fract_x
  _atom_site_fract_y
  _atom_site_fract_z
  _atom_site_occupancy
  Ca  Ca1       1.0  0.055844034999608994  0.3322197198867798  0.96082603931427  1.0000
  Si  Si1       1.0  0.8052384257316589  0.5815005302429198  0.4613207280635833  1.0000
  O   O1        1.0  0.5201111435890198  0.9949435591697693  0.7620038390159607  1.0000
  O   O2        1.0  0.9934145212173462  0.5965180993080138  0.2887443900108337  1.0000
  Ti  Ti1       1.0  0.3072475492954254  0.08165840059518814  0.4605569839477539  1.0000
  O   O3        1.0  0.9933733344078064  0.9426298141479492  0.6331119537353515  1.0000
  O   O4        1.0  0.7903259992599487  0.39324355125427246  0.6331497430801392  1.0000
  Si  Si2       1.0  0.5558534860610962  0.8321058750152588  0.960773229598999  1.0000
  O   O5        1.0  0.918663501739502  0.9949925541877745  0.1592233180999755  1.0000
  O   O6        1.0  0.4451766908168793  0.3950181901454925  0.2888041734695434  1.0000
  O   O7        1.0  0.3932628631591797  0.8680629730224609  0.15984743833541862  1.0000
  O   O8        1.0  0.39339321851730347  0.46995127201080317  0.7623946666717529  1.0000
