data_image303
_chemical_formula_structural       CaTiCaTiO3SiO2SiO4
_chemical_formula_sum              "Ca2 Ti2 O9 Si2"
_cell_length_a       5.584916426333403
_cell_length_b       5.603732316327223
_cell_length_c       7.058384418487549
_cell_angle_alpha    104.52010850183854
_cell_angle_beta     103.92640369043401
_cell_angle_gamma    105.567676173847

_space_group_name_H-M_alt    "P 1"
_space_group_IT_number       1

loop_
  _space_group_symop_operation_xyz
  'x, y, z'

loop_
  _atom_site_type_symbol
  _atom_site_label
  _atom_site_symmetry_multiplicity
  _atom_site_fract_x
  _atom_site_fract_y
  _atom_site_fract_z
  _atom_site_occupancy
  Ca  Ca1       1.0  0.7735557556152344  0.8881445527076721  0.717270016670227  1.0000
  Ti  Ti1       1.0  0.08154208958148956  0.5414623022079468  0.9460387229919434  1.0000
  Ca  Ca2       1.0  0.38307371735572815  0.20475850999355313  0.2120436578989029  1.0000
  Ti  Ti2       1.0  0.12942445278167725  0.6075989007949829  0.4648204743862152  1.0000
  O   O1        1.0  0.14994141459465027  0.472549170255661  0.2070154845714569  1.0000
  O   O2        1.0  0.7052835822105408  0.31481584906578064  0.8705283403396606  1.0000
  O   O3        1.0  0.4747362732887268  0.8241565823554993  0.06629626452922821  1.0000
  Si  Si1       1.0  0.7371033430099487  0.7860426902770996  0.16175003349781042  1.0000
  O   O4        1.0  0.41769731044769287  0.46546849608421326  0.5828077793121338  1.0000
  O   O5        1.0  0.960221529006958  0.8606026768684388  0.06570213288068777  1.0000
  Si  Si2       1.0  0.41695091128349304  0.2519676089286804  0.7079633474349976  1.0000
  O   O6        1.0  0.7692573070526123  0.6720396876335144  0.3414643108844757  1.0000
  O   O7        1.0  0.017717914655804634  0.6185230612754822  0.69621080160141  1.0000
  O   O8        1.0  0.2034512758255005  0.23062618076801303  0.8358553647994995  1.0000
  O   O9        1.0  0.3659957945346832  0.9715005159378052  0.5368306636810303  1.0000
