data_image150
_chemical_formula_structural       Si2TiSiO2Ca2O9Si
_chemical_formula_sum              "Si4 Ti1 O11 Ca2"
_cell_length_a       5.18640700375509
_cell_length_b       6.290946304649601
_cell_length_c       8.37440299987793
_cell_angle_alpha    74.26546424401418
_cell_angle_beta     89.37610569357825
_cell_angle_gamma    93.29323975665186

_space_group_name_H-M_alt    "P 1"
_space_group_IT_number       1

loop_
  _space_group_symop_operation_xyz
  'x, y, z'

loop_
  _atom_site_type_symbol
  _atom_site_label
  _atom_site_symmetry_multiplicity
  _atom_site_fract_x
  _atom_site_fract_y
  _atom_site_fract_z
  _atom_site_occupancy
  Si  Si1       1.0  0.7125517129898071  0.4318902790546418  0.3487996757030487  1.0000
  Si  Si2       1.0  0.6449446678161621  0.25720277428627014  0.703029990196228  1.0000
  Ti  Ti1       1.0  0.13406530022621155  0.3878999650478363  0.9241155982017517  1.0000
  Si  Si3       1.0  0.6387230157852173  0.668255627155304  0.008125342428684235  1.0000
  O   O1        1.0  0.9258238673210145  0.26382043957710266  0.7837437391281128  1.0000
  O   O2        1.0  0.11682575941085817  0.9497211575508119  0.4553143084049225  1.0000
  Ca  Ca1       1.0  0.15897610783576968  0.9570155143737794  0.7476052045822144  1.0000
  Ca  Ca2       1.0  0.6532373428344727  0.8686809539794923  0.4469439387321472  1.0000
  O   O3        1.0  0.3664543032646179  0.6594353914260864  0.9397881031036377  1.0000
  O   O4        1.0  0.6035560369491577  0.024309145286679268  0.6523253917694092  1.0000
  O   O5        1.0  0.40898776054382324  0.270168274641037  0.8245353102684021  1.0000
  O   O6        1.0  0.5113207101821899  0.23505577445030212  0.3113678991794586  1.0000
  O   O7        1.0  0.10918190330266954  0.17515279352664948  0.12781740725040436  1.0000
  O   O8        1.0  0.01601347140967846  0.37475860118865967  0.3528854548931122  1.0000
  O   O9        1.0  0.8813019394874574  0.6468940377235413  0.9102082252502443  1.0000
  O   O10       1.0  0.6628928780555725  0.6653690338134767  0.20168346166610712  1.0000
  O   O11       1.0  0.6391525268554688  0.47408610582351685  0.5292561650276184  1.0000
  Si  Si4       1.0  0.18449760973453522  0.1765977442264557  0.3134603500366211  1.0000
