data_image507
_chemical_formula_structural       SiTiO2
_chemical_formula_sum              "Si1 Ti1 O2"
_cell_length_a       2.894513332835247
_cell_length_b       2.8942987142359615
_cell_length_c       7.611952781677246
_cell_angle_alpha    79.29020418826896
_cell_angle_beta     79.25264562509915
_cell_angle_gamma    60.07299720138621

_space_group_name_H-M_alt    "P 1"
_space_group_IT_number       1

loop_
  _space_group_symop_operation_xyz
  'x, y, z'

loop_
  _atom_site_type_symbol
  _atom_site_label
  _atom_site_symmetry_multiplicity
  _atom_site_fract_x
  _atom_site_fract_y
  _atom_site_fract_z
  _atom_site_occupancy
  Si  Si1       1.0  0.46192991733551025  0.3989228904247284  0.6545700430870056  1.0000
  Ti  Ti1       1.0  0.02885019220411771  0.964696764945984  0.9545907974243164  1.0000
  O   O1        1.0  0.16310995817184445  0.09987813234329224  0.553792417049408  1.0000
  O   O2        1.0  0.32183021306991577  0.2562599778175354  0.0789518877863884  1.0000
