data_image332
_chemical_formula_structural       CaTiSiTiO6SiO
_chemical_formula_sum              "Ca1 Ti2 Si2 O7"
_cell_length_a       5.280617111985594
_cell_length_b       5.276016428879276
_cell_length_c       8.50446605682373
_cell_angle_alpha    72.10073390389559
_cell_angle_beta     72.07050255571511
_cell_angle_gamma    59.94101749188851

_space_group_name_H-M_alt    "P 1"
_space_group_IT_number       1

loop_
  _space_group_symop_operation_xyz
  'x, y, z'

loop_
  _atom_site_type_symbol
  _atom_site_label
  _atom_site_symmetry_multiplicity
  _atom_site_fract_x
  _atom_site_fract_y
  _atom_site_fract_z
  _atom_site_occupancy
  Ca  Ca1       1.0  0.8627713918685913  0.4059562087059021  0.2652987837791443  1.0000
  Ti  Ti1       1.0  0.4414457976818085  0.9824798107147217  0.5355867147445679  1.0000
  Si  Si1       1.0  0.6176595091819763  0.16072598099708557  0.9987992048263551  1.0000
  Ti  Ti2       1.0  0.28575649857521057  0.8287014365196228  0.9936836361885072  1.0000
  O   O1        1.0  0.832642138004303  0.707453727722168  0.447333961725235  1.0000
  O   O2        1.0  0.5602932572364807  0.8582557439804077  0.08181647211313248  1.0000
  O   O3        1.0  0.3636903464794159  0.9071590304374696  0.7641337513923645  1.0000
  O   O4        1.0  0.8941884636878968  0.10477836430072784  0.08170937746763227  1.0000
  O   O5        1.0  0.41231054067611694  0.37340468168258667  0.44683051109313965  1.0000
  O   O6        1.0  0.3130187690258026  0.4375249445438385  0.0821671336889267  1.0000
  Si  Si2       1.0  0.10849276185035711  0.6520554423332214  0.5309764742851257  1.0000
  O   O7        1.0  0.16826441884040833  0.9538531303405763  0.44611650705337524  1.0000
