data_image345
_chemical_formula_structural       OCaOSiO2TiOSiO3
_chemical_formula_sum              "O8 Ca1 Si2 Ti1"
_cell_length_a       5.651431879317273
_cell_length_b       5.651664226237616
_cell_length_c       5.654397964477539
_cell_angle_alpha    106.59616632868472
_cell_angle_beta     106.44706299408465
_cell_angle_gamma    115.51456215815531

_space_group_name_H-M_alt    "P 1"
_space_group_IT_number       1

loop_
  _space_group_symop_operation_xyz
  'x, y, z'

loop_
  _atom_site_type_symbol
  _atom_site_label
  _atom_site_symmetry_multiplicity
  _atom_site_fract_x
  _atom_site_fract_y
  _atom_site_fract_z
  _atom_site_occupancy
  O   O1        1.0  0.2788601517677308  0.6577795743942262  0.07559108734130864  1.0000
  Ca  Ca1       1.0  0.14169450104236603  0.3218393325805664  0.2747325599193573  1.0000
  O   O2        1.0  0.20385205745697021  0.711127519607544  0.6020933389663696  1.0000
  Si  Si1       1.0  0.39185166358947754  0.07218880951404572  0.7746636867523193  1.0000
  O   O3        1.0  0.40736716985702515  0.2605922222137451  0.6020269989967346  1.0000
  O   O4        1.0  0.8040727376937866  0.18339002132415774  0.4722296893596649  1.0000
  Ti  Ti1       1.0  0.8902543783187866  0.5718794465065002  0.7745234370231628  1.0000
  O   O5        1.0  0.6776165962219238  0.6584755778312683  0.47282546758651733  1.0000
  Si  Si2       1.0  0.641191303730011  0.8214011192321777  0.2743985354900361  1.0000
  O   O6        1.0  0.7525275945663452  0.2598196864128113  0.9460374712944031  1.0000
  O   O7        1.0  0.2031722217798233  0.056452326476573944  0.9467958807945251  1.0000
  O   O8        1.0  0.8042298555374146  0.785637617111206  0.0750259980559349  1.0000
