data_image297
_chemical_formula_structural       OCaTiO3SiO2
_chemical_formula_sum              "O6 Ca1 Ti1 Si1"
_cell_length_a       5.014745216906669
_cell_length_b       5.0111949026475795
_cell_length_c       5.011685848236084
_cell_angle_alpha    120.02460718061972
_cell_angle_beta     90.08272292213114
_cell_angle_gamma    89.9747717842341

_space_group_name_H-M_alt    "P 1"
_space_group_IT_number       1

loop_
  _space_group_symop_operation_xyz
  'x, y, z'

loop_
  _atom_site_type_symbol
  _atom_site_label
  _atom_site_symmetry_multiplicity
  _atom_site_fract_x
  _atom_site_fract_y
  _atom_site_fract_z
  _atom_site_occupancy
  O   O1        1.0  0.05161767825484276  0.03732901811599731  0.46273443102836614  1.0000
  Ca  Ca1       1.0  0.7552962899208069  0.6765772104263306  0.07584890723228446  1.0000
  Ti  Ti1       1.0  0.2551426887512207  0.34368944168090815  0.4091542065143585  1.0000
  O   O2        1.0  0.051933757960796356  0.2891380190849304  0.05070529133081434  1.0000
  O   O3        1.0  0.4594389498233795  0.2890242636203766  0.7145811915397644  1.0000
  O   O4        1.0  0.45928508043289185  0.7018881440162659  0.46320381760597235  1.0000
  Si  Si1       1.0  0.25536489486694336  0.009204459376633166  0.7415921092033386  1.0000
  O   O5        1.0  0.05078037828207016  0.7015904784202576  0.7134044170379639  1.0000
  O   O6        1.0  0.4595244228839874  0.03843361884355545  0.050349827855825424  1.0000
