data_image528
_chemical_formula_structural       Ca2OTiSiOSiO4CaO2
_chemical_formula_sum              "Ca3 O8 Ti1 Si2"
_cell_length_a       6.306518858234463
_cell_length_b       5.777359292046783
_cell_length_c       5.813124656677246
_cell_angle_alpha    98.12008648419489
_cell_angle_beta     85.32934863271288
_cell_angle_gamma    88.85235317452155

_space_group_name_H-M_alt    "P 1"
_space_group_IT_number       1

loop_
  _space_group_symop_operation_xyz
  'x, y, z'

loop_
  _atom_site_type_symbol
  _atom_site_label
  _atom_site_symmetry_multiplicity
  _atom_site_fract_x
  _atom_site_fract_y
  _atom_site_fract_z
  _atom_site_occupancy
  Ca  Ca1       1.0  0.3022347688674927  0.5353084802627563  0.16158735752105713  1.0000
  Ca  Ca2       1.0  0.5208821296691895  0.05472099035978318  0.5807536244392395  1.0000
  O   O1        1.0  0.6696774959564209  0.4749366939067841  0.10640645772218704  1.0000
  Ti  Ti1       1.0  0.7503993511199951  0.7654930353164673  0.9638864398002625  1.0000
  Si  Si1       1.0  0.2575700581073761  0.6484373211860657  0.6864091753959656  1.0000
  O   O2        1.0  0.06508336961269379  0.26149603724479675  0.13514502346515656  1.0000
  Si  Si2       1.0  0.8218116760253906  0.23331347107887268  0.07009314000606537  1.0000
  O   O3        1.0  0.4613712728023529  0.749652326107025  0.835120677947998  1.0000
  O   O4        1.0  0.7980133891105652  0.0858670100569725  0.808782696723938  1.0000
  O   O5        1.0  0.3072925209999084  0.3767869472503662  0.5705307722091675  1.0000
  O   O6        1.0  0.7290686368942261  0.035109855234622955  0.2356945425271988  1.0000
  Ca  Ca3       1.0  0.027294548228383064  0.1345432698726654  0.48848527669906616  1.0000
  O   O7        1.0  0.04488644003868103  0.6684602499008179  0.8722661137580872  1.0000
  O   O8        1.0  0.24246597290039062  0.8121890425682069  0.4799583852291107  1.0000
