data_image61
_chemical_formula_structural       SiCaTiOTiOSiO7
_chemical_formula_sum              "Si2 Ca1 Ti2 O9"
_cell_length_a       5.760210084480123
_cell_length_b       5.719783998413563
_cell_length_c       6.719189643859863
_cell_angle_alpha    90.09489430797188
_cell_angle_beta     88.03188353599913
_cell_angle_gamma    90.06329103563363

_space_group_name_H-M_alt    "P 1"
_space_group_IT_number       1

loop_
  _space_group_symop_operation_xyz
  'x, y, z'

loop_
  _atom_site_type_symbol
  _atom_site_label
  _atom_site_symmetry_multiplicity
  _atom_site_fract_x
  _atom_site_fract_y
  _atom_site_fract_z
  _atom_site_occupancy
  Si  Si1       1.0  0.3998810350894928  0.3469007909297943  0.5081276297569275  1.0000
  Ca  Ca1       1.0  0.8430745601654053  0.3463795781135559  0.24998638033866882  1.0000
  Ti  Ti1       1.0  0.28337687253952026  0.34758803248405457  0.003926243633031845  1.0000
  O   O1        1.0  0.5880833864212036  0.5700804591178894  0.4850307106971741  1.0000
  Ti  Ti2       1.0  0.6197589635848999  0.8472731709480285  0.6275072693824768  1.0000
  O   O2        1.0  0.37116584181785583  0.847628653049469  0.7953580021858215  1.0000
  Si  Si2       1.0  0.10352189838886261  0.847129225730896  0.8989726305007935  1.0000
  O   O3        1.0  0.5886282920837402  0.12412965297698975  0.48444947600364685  1.0000
  O   O4        1.0  0.2235904037952423  0.3471147119998932  0.33043187856674194  1.0000
  O   O5        1.0  0.9044587016105652  0.8462395071983336  0.7296797633171082  1.0000
  O   O6        1.0  0.27227291464805603  0.3471284806728363  0.7239831686019897  1.0000
  O   O7        1.0  0.07750628888607025  0.08322061598300934  0.03484281897544861  1.0000
  O   O8        1.0  0.0775492787361145  0.6118891835212708  0.03434676676988602  1.0000
  O   O9        1.0  0.5758137106895447  0.3475925028324127  0.02597038261592389  1.0000
