data_image541
_chemical_formula_structural       O2TiCa2O4TiO3Si2O2Ca
_chemical_formula_sum              "O11 Ti2 Ca3 Si2"
_cell_length_a       5.585651129256136
_cell_length_b       7.099780286187986
_cell_length_c       7.139692306518555
_cell_angle_alpha    75.32325645465686
_cell_angle_beta     77.3095464006649
_cell_angle_gamma    81.15503732660463

_space_group_name_H-M_alt    "P 1"
_space_group_IT_number       1

loop_
  _space_group_symop_operation_xyz
  'x, y, z'

loop_
  _atom_site_type_symbol
  _atom_site_label
  _atom_site_symmetry_multiplicity
  _atom_site_fract_x
  _atom_site_fract_y
  _atom_site_fract_z
  _atom_site_occupancy
  O   O1        1.0  0.8355827927589418  0.49855858087539673  0.6739308834075928  1.0000
  O   O2        1.0  0.7827786207199097  0.982895851135254  0.9385332465171814  1.0000
  Ti  Ti1       1.0  0.9756999611854554  0.535223126411438  0.42038777470588673  1.0000
  Ca  Ca1       1.0  0.5222938060760498  0.0667930617928505  0.717408299446106  1.0000
  Ca  Ca2       1.0  0.4602948129177094  0.8994361162185669  0.28184568881988525  1.0000
  O   O3        1.0  0.8107807636260987  0.3776771724224091  0.3277178108692169  1.0000
  O   O4        1.0  0.45287188887596136  0.8004443049430848  0.6251534819602966  1.0000
  O   O5        1.0  0.22153525054454806  0.9944505691528321  0.017440203577280045  1.0000
  O   O6        1.0  0.5830843448638916  0.4568999111652375  0.039630256593227386  1.0000
  Ti  Ti2       1.0  0.46517020463943487  0.5681756734848022  0.7962285280227661  1.0000
  O   O7        1.0  0.42492240667343145  0.18141375482082367  0.374033659696579  1.0000
  O   O8        1.0  0.8799539804458619  0.7803766131401062  0.2753570079803467  1.0000
  O   O9        1.0  0.3587576150894165  0.3680780529975891  0.74876469373703  1.0000
  Si  Si1       1.0  0.526411771774292  0.39087566733360296  0.2785100042819977  1.0000
  Si  Si2       1.0  0.011045132763683803  0.852824866771698  0.03030692413449287  1.0000
  O   O10       1.0  0.12803976237773898  0.6425415277481079  0.9598550796508789  1.0000
  O   O11       1.0  0.3221317529678345  0.5648230910301208  0.34982505440711975  1.0000
  Ca  Ca3       1.0  0.9929185509681703  0.3296967744827271  0.9577808380126953  1.0000
