data_image370
_chemical_formula_structural       TiCaSiOCaOTiOSiO7
_chemical_formula_sum              "Ti2 Ca2 Si2 O10"
_cell_length_a       5.5032182159784995
_cell_length_b       5.5028975788820755
_cell_length_c       7.116202354431152
_cell_angle_alpha    104.28442222867646
_cell_angle_beta     104.3003016440657
_cell_angle_gamma    105.60233371573678

_space_group_name_H-M_alt    "P 1"
_space_group_IT_number       1

loop_
  _space_group_symop_operation_xyz
  'x, y, z'

loop_
  _atom_site_type_symbol
  _atom_site_label
  _atom_site_symmetry_multiplicity
  _atom_site_fract_x
  _atom_site_fract_y
  _atom_site_fract_z
  _atom_site_occupancy
  Ti  Ti1       1.0  0.7144449353218079  0.9377809166908264  0.5515317916870117  1.0000
  Ca  Ca1       1.0  0.04297250136733055  0.6090534329414368  0.8015511631965637  1.0000
  Si  Si1       1.0  0.394633948802948  0.25777941942214966  0.8018893599510193  1.0000
  O   O1        1.0  0.33750855922698975  0.68779057264328  0.45930832624435425  1.0000
  Ca  Ca2       1.0  0.38566333055496216  0.2666023373603821  0.3017192482948303  1.0000
  O   O2        1.0  0.5998711585998535  0.2502494156360626  0.6679693460464478  1.0000
  Ti  Ti2       1.0  0.7145131230354309  0.9377456307411195  0.051901254802942276  1.0000
  O   O3        1.0  0.645470917224884  0.006331154145300388  0.30169740319252014  1.0000
  Si  Si2       1.0  0.03433505818247795  0.6177157163619995  0.30131104588508606  1.0000
  O   O4        1.0  0.828555703163147  0.6254022121429443  0.4351833462715149  1.0000
  O   O5        1.0  0.783080518245697  0.868739128112793  0.8014814853668213  1.0000
  O   O6        1.0  0.09155523031949997  0.1879141926765442  0.6446036696434021  1.0000
  O   O7        1.0  0.4017800986766815  0.052294246852397926  0.935447096824646  1.0000
  O   O8        1.0  0.027117084711790043  0.8235061764717101  0.1680088937282562  1.0000
  O   O9        1.0  0.4643178880214691  0.5608143210411072  0.9588813781738281  1.0000
  O   O10       1.0  0.9644424915313721  0.3142980933189392  0.14442640542984006  1.0000
