data_image391
_chemical_formula_structural       SiCaTiO
_chemical_formula_sum              "Si1 Ca1 Ti1 O1"
_cell_length_a       2.9652945086770783
_cell_length_b       3.467625705278894
_cell_length_c       6.702546119689941
_cell_angle_alpha    105.01515486357428
_cell_angle_beta     102.65510590212214
_cell_angle_gamma    90.10919006089736

_space_group_name_H-M_alt    "P 1"
_space_group_IT_number       1

loop_
  _space_group_symop_operation_xyz
  'x, y, z'

loop_
  _atom_site_type_symbol
  _atom_site_label
  _atom_site_symmetry_multiplicity
  _atom_site_fract_x
  _atom_site_fract_y
  _atom_site_fract_z
  _atom_site_occupancy
  Si  Si1       1.0  0.1278238445520401  0.23747242987155917  0.8284435272216797  1.0000
  Ca  Ca1       1.0  0.7950935363769531  0.9042967557907104  0.16037750244140622  1.0000
  Ti  Ti1       1.0  0.5137231945991516  0.6238498687744141  0.6000087857246399  1.0000
  O   O1        1.0  0.9139505624771118  0.5243223309516907  0.397689551115036  1.0000
