data_image373
_chemical_formula_structural       Si2OCaOCaO4SiOTiCaO5
_chemical_formula_sum              "Si3 O12 Ca3 Ti1"
_cell_length_a       5.7420149512458645
_cell_length_b       7.303443463520068
_cell_length_c       8.383474349975586
_cell_angle_alpha    111.40726994473822
_cell_angle_beta     105.500097721459
_cell_angle_gamma    97.99333683709935

_space_group_name_H-M_alt    "P 1"
_space_group_IT_number       1

loop_
  _space_group_symop_operation_xyz
  'x, y, z'

loop_
  _atom_site_type_symbol
  _atom_site_label
  _atom_site_symmetry_multiplicity
  _atom_site_fract_x
  _atom_site_fract_y
  _atom_site_fract_z
  _atom_site_occupancy
  Si  Si1       1.0  0.06507612764835358  0.6759357452392578  0.6534635424613953  1.0000
  Si  Si2       1.0  0.12020173668861385  0.9734169840812682  0.23151434957981107  1.0000
  O   O1        1.0  0.09985154867172241  0.17154943943023682  0.4034344553947449  1.0000
  Ca  Ca1       1.0  0.08256781846284866  0.39202404022216797  0.21974408626556396  1.0000
  O   O2        1.0  0.11974456161260601  0.6510947942733764  0.4714606702327728  1.0000
  Ca  Ca2       1.0  0.5124303102493286  0.9006230235099791  0.5971267223358154  1.0000
  O   O3        1.0  0.7023595571517944  0.20046649873256683  0.04186231642961502  1.0000
  O   O4        1.0  0.2905945181846618  0.8620970249176024  0.8180959224700928  1.0000
  O   O5        1.0  0.3222033381462097  0.17654265463352203  0.7231362462043762  1.0000
  O   O6        1.0  0.3413465619087219  0.4279667735099792  0.06376096606254575  1.0000
  Si  Si3       1.0  0.08913108706474304  0.23367948830127716  0.6116653680801392  1.0000
  O   O7        1.0  0.12948974967002866  0.48377069830894465  0.7068400979042053  1.0000
  Ti  Ti1       1.0  0.38104623556137085  0.1718248426914215  0.9622976183891296  1.0000
  Ca  Ca3       1.0  0.4370332956314087  0.713993489742279  0.025054529309272766  1.0000
  O   O8        1.0  0.22391360998153687  0.09460209310054778  0.12073908746242523  1.0000
  O   O9        1.0  0.8276277184486389  0.11729522049427031  0.6124399304389954  1.0000
  O   O10       1.0  0.782002866268158  0.6969705224037169  0.6433832049369812  1.0000
  O   O11       1.0  0.8474743962287903  0.8100088834762572  0.10924524068832397  1.0000
  O   O12       1.0  0.323090374469757  0.8579993247985839  0.2885687053203582  1.0000
