data_image17
_chemical_formula_structural       TiOCaOSiO4
_chemical_formula_sum              "Ti1 O6 Ca1 Si1"
_cell_length_a       5.002396721428987
_cell_length_b       5.004652570155152
_cell_length_c       5.020224094390869
_cell_angle_alpha    90.03664646755482
_cell_angle_beta     89.97159574776433
_cell_angle_gamma    119.97698527051155

_space_group_name_H-M_alt    "P 1"
_space_group_IT_number       1

loop_
  _space_group_symop_operation_xyz
  'x, y, z'

loop_
  _atom_site_type_symbol
  _atom_site_label
  _atom_site_symmetry_multiplicity
  _atom_site_fract_x
  _atom_site_fract_y
  _atom_site_fract_z
  _atom_site_occupancy
  Ti  Ti1       1.0  0.6770560145378113  0.9392204284667969  0.7813386917114258  1.0000
  O   O1        1.0  0.37024345993995667  0.9913715720176697  0.5787730813026428  1.0000
  Ca  Ca1       1.0  0.009488777257502079  0.6052924990653992  0.28156420588493347  1.0000
  O   O2        1.0  0.6241149306297302  0.5802764296531677  0.5792349576950073  1.0000
  Si  Si1       1.0  0.34235864877700806  0.2718538045883178  0.7815515995025635  1.0000
  O   O3        1.0  0.3698599934577942  0.5793853402137756  0.9842070937156677  1.0000
  O   O4        1.0  0.6234136819839478  0.24487704038619992  0.9845821261405945  1.0000
  O   O5        1.0  0.03474871441721916  0.9910176992416382  0.9844769835472107  1.0000
  O   O6        1.0  0.034965362399816534  0.24444693326950076  0.5783926844596863  1.0000
