data_image96
_chemical_formula_structural       CaOCaTiOSiO2
_chemical_formula_sum              "Ca2 O4 Ti1 Si1"
_cell_length_a       4.792164885300082
_cell_length_b       4.798001665419322
_cell_length_c       5.920734882354736
_cell_angle_alpha    113.96520357044479
_cell_angle_beta     113.92513630409165
_cell_angle_gamma    90.2840087377837

_space_group_name_H-M_alt    "P 1"
_space_group_IT_number       1

loop_
  _space_group_symop_operation_xyz
  'x, y, z'

loop_
  _atom_site_type_symbol
  _atom_site_label
  _atom_site_symmetry_multiplicity
  _atom_site_fract_x
  _atom_site_fract_y
  _atom_site_fract_z
  _atom_site_occupancy
  Ca  Ca1       1.0  0.9303091168403625  0.5395174026489257  0.4921185374259948  1.0000
  O   O1        1.0  0.5613554120063782  0.730783998966217  0.20760965347290036  1.0000
  Ca  Ca2       1.0  0.17986124753952026  0.2898248136043548  0.9925553798675536  1.0000
  Ti  Ti1       1.0  0.4290078580379486  0.04045000299811363  0.4918920695781707  1.0000
  O   O2        1.0  0.40566104650497437  0.9082623124122619  0.7784261107444763  1.0000
  Si  Si1       1.0  0.6799378395080566  0.7896164059638976  0.9916781187057494  1.0000
  O   O3        1.0  0.013637840747833252  0.06333867460489273  0.20647259056568143  1.0000
  O   O4        1.0  0.7412699460983276  0.4584668278694153  0.777980387210846  1.0000
