data_image193
_chemical_formula_structural       CaSi2TiO8
_chemical_formula_sum              "Ca1 Si2 Ti1 O8"
_cell_length_a       5.630968434547321
_cell_length_b       5.632143225456992
_cell_length_c       5.6378326416015625
_cell_angle_alpha    106.61169774878489
_cell_angle_beta     106.55633383135775
_cell_angle_gamma    115.31420402546243

_space_group_name_H-M_alt    "P 1"
_space_group_IT_number       1

loop_
  _space_group_symop_operation_xyz
  'x, y, z'

loop_
  _atom_site_type_symbol
  _atom_site_label
  _atom_site_symmetry_multiplicity
  _atom_site_fract_x
  _atom_site_fract_y
  _atom_site_fract_z
  _atom_site_occupancy
  Ca  Ca1       1.0  0.21219491958618164  0.8346982598304749  0.16846722364425662  1.0000
  Si  Si1       1.0  0.4620094895362854  0.5845030546188354  0.6684252023696899  1.0000
  Si  Si2       1.0  0.7121026515960693  0.3351055085659027  0.1689193993806839  1.0000
  Ti  Ti1       1.0  0.9616218209266663  0.0856153666973114  0.6689382791519165  1.0000
  O   O1        1.0  0.7477706670761108  0.17140211164951324  0.367669016122818  1.0000
  O   O2        1.0  0.35043421387672424  0.1728174239397049  0.9700918197631836  1.0000
  O   O3        1.0  0.47663676738739014  0.7721976637840271  0.49557623267173767  1.0000
  O   O4        1.0  0.8232566714286804  0.7716726660728455  0.840272843837738  1.0000
  O   O5        1.0  0.8749825358390808  0.6963204145431519  0.36735004186630255  1.0000
  O   O6        1.0  0.27467867732048035  0.22352902591228485  0.49585554003715515  1.0000
  O   O7        1.0  0.27477261424064636  0.5706269145011902  0.8409594297409058  1.0000
  O   O8        1.0  0.8753457069396973  0.29828330874443054  0.9689468741416931  1.0000
