data_image126
_chemical_formula_structural       TiO
_chemical_formula_sum              "Ti1 O1"
_cell_length_a       2.969983385242468
_cell_length_b       3.0524305718417986
_cell_length_c       2.8960976600646973
_cell_angle_alpha    116.31887132755142
_cell_angle_beta     117.71179294818978
_cell_angle_gamma    89.28898597501176

_space_group_name_H-M_alt    "P 1"
_space_group_IT_number       1

loop_
  _space_group_symop_operation_xyz
  'x, y, z'

loop_
  _atom_site_type_symbol
  _atom_site_label
  _atom_site_symmetry_multiplicity
  _atom_site_fract_x
  _atom_site_fract_y
  _atom_site_fract_z
  _atom_site_occupancy
  Ti  Ti1       1.0  0.6983380913734436  0.7911087274551392  0.7095510363578796  1.0000
  O   O1        1.0  0.1934981495141983  0.2866286039352417  0.6988511085510254  1.0000
