data_image393
_chemical_formula_structural       SiCaTiCaO6
_chemical_formula_sum              "Si1 Ca2 Ti1 O6"
_cell_length_a       5.263339353486772
_cell_length_b       5.266499094413996
_cell_length_c       5.29565954208374
_cell_angle_alpha    119.76174094404159
_cell_angle_beta     119.77291323600647
_cell_angle_gamma    90.10439404124249

_space_group_name_H-M_alt    "P 1"
_space_group_IT_number       1

loop_
  _space_group_symop_operation_xyz
  'x, y, z'

loop_
  _atom_site_type_symbol
  _atom_site_label
  _atom_site_symmetry_multiplicity
  _atom_site_fract_x
  _atom_site_fract_y
  _atom_site_fract_z
  _atom_site_occupancy
  Si  Si1       1.0  0.5628893971443176  0.48482412099838257  0.062687449157238  1.0000
  Ca  Ca1       1.0  0.3128311336040497  0.7345570921897888  0.5627626776695251  1.0000
  Ti  Ti1       1.0  0.06276506185531616  0.9850295186042786  0.06293695420026771  1.0000
  Ca  Ca2       1.0  0.812721848487854  0.23471055924892428  0.5623205900192261  1.0000
  O   O1        1.0  0.3237118124961853  0.24527019262313843  0.5835301876068115  1.0000
  O   O2        1.0  0.8019927144050598  0.7240647673606874  0.5417503118515015  1.0000
  O   O3        1.0  0.2894004583358765  0.6891837716102601  0.06264980882406235  1.0000
  O   O4        1.0  0.8364951610565186  0.2806759774684906  0.0628567710518837  1.0000
  O   O5        1.0  0.7666219472885132  0.7583211660385132  0.06189877912402153  1.0000
  O   O6        1.0  0.35859212279319763  0.21133770048618317  0.06260056048631668  1.0000
