data_image524
_chemical_formula_structural       SiCaO2
_chemical_formula_sum              "Si1 Ca1 O2"
_cell_length_a       3.4659597229037185
_cell_length_b       3.4730339711524656
_cell_length_c       5.492189884185791
_cell_angle_alpha    71.66779358731874
_cell_angle_beta     71.57250558268663
_cell_angle_gamma    60.04639291778095

_space_group_name_H-M_alt    "P 1"
_space_group_IT_number       1

loop_
  _space_group_symop_operation_xyz
  'x, y, z'

loop_
  _atom_site_type_symbol
  _atom_site_label
  _atom_site_symmetry_multiplicity
  _atom_site_fract_x
  _atom_site_fract_y
  _atom_site_fract_z
  _atom_site_occupancy
  Si  Si1       1.0  0.30989953875541687  0.588959276676178  0.0788634717464447  1.0000
  Ca  Ca1       1.0  0.7926774024963379  0.0703980103135109  0.6351733207702637  1.0000
  O   O1        1.0  0.9995303153991699  0.2772863507270813  0.010663319379091221  1.0000
  O   O2        1.0  0.19867648184299466  0.47726351022720337  0.41497519612312317  1.0000
