data_image590
_chemical_formula_structural       CaSi2O
_chemical_formula_sum              "Ca1 Si2 O1"
_cell_length_a       3.8270643952469987
_cell_length_b       3.832080889592469
_cell_length_c       6.151272296905518
_cell_angle_alpha    71.83321453932251
_cell_angle_beta     71.85637605898116
_cell_angle_gamma    60.04234165841357

_space_group_name_H-M_alt    "P 1"
_space_group_IT_number       1

loop_
  _space_group_symop_operation_xyz
  'x, y, z'

loop_
  _atom_site_type_symbol
  _atom_site_label
  _atom_site_symmetry_multiplicity
  _atom_site_fract_x
  _atom_site_fract_y
  _atom_site_fract_z
  _atom_site_occupancy
  Ca  Ca1       1.0  0.43317332863807667  0.5745524168014526  0.7920442223548888  1.0000
  Si  Si1       1.0  0.23721127212047577  0.37830767035484314  0.3777842819690704  1.0000
  Si  Si2       1.0  0.6241650581359863  0.7662894129753114  0.21838940680027005  1.0000
  O   O1        1.0  0.7217409014701842  0.8632307648658754  0.9256189465522765  1.0000
