data_image276
_chemical_formula_structural       TiCaO2SiO4SiO2
_chemical_formula_sum              "Ti1 Ca1 O8 Si2"
_cell_length_a       5.102188161939129
_cell_length_b       5.105977136387549
_cell_length_c       6.829659938812256
_cell_angle_alpha    90.54259957709937
_cell_angle_beta     90.76835098035488
_cell_angle_gamma    64.24789363390747

_space_group_name_H-M_alt    "P 1"
_space_group_IT_number       1

loop_
  _space_group_symop_operation_xyz
  'x, y, z'

loop_
  _atom_site_type_symbol
  _atom_site_label
  _atom_site_symmetry_multiplicity
  _atom_site_fract_x
  _atom_site_fract_y
  _atom_site_fract_z
  _atom_site_occupancy
  Ti  Ti1       1.0  0.13623307645320895  0.1720168888568878  0.8646014332771301  1.0000
  Ca  Ca1       1.0  0.1358495801687241  0.17173239588737488  0.3648342192173004  1.0000
  O   O1        1.0  0.4078303873538971  0.4473627507686615  0.41425850987434387  1.0000
  O   O2        1.0  0.863584578037262  0.8969821333885194  0.315238893032074  1.0000
  Si  Si1       1.0  0.7828886508941652  0.8166420459747313  0.09545493125915527  1.0000
  O   O3        1.0  0.4261985719203948  0.962562084197998  0.07319749891757965  1.0000
  O   O4        1.0  0.3450934290885926  0.8825621008872985  0.6574406027793884  1.0000
  O   O5        1.0  0.8448644876480103  0.3826139271259308  0.656646728515625  1.0000
  O   O6        1.0  0.9259160161018372  0.46152922511100763  0.07219675928354263  1.0000
  Si  Si2       1.0  0.48857739567756653  0.5267661809921265  0.6344643831253052  1.0000
  O   O7        1.0  0.9221076369285583  0.9577793478965758  0.9376674294471741  1.0000
  O   O8        1.0  0.3500165641307831  0.3867197632789612  0.7920045852661133  1.0000
