data_image457
_chemical_formula_structural       CaSi2OTiO6
_chemical_formula_sum              "Ca1 Si2 O7 Ti1"
_cell_length_a       4.654832691282151
_cell_length_b       5.3975076248322384
_cell_length_c       5.400164604187012
_cell_angle_alpha    102.27649586559258
_cell_angle_beta     96.6038463579146
_cell_angle_gamma    96.59234437381704

_space_group_name_H-M_alt    "P 1"
_space_group_IT_number       1

loop_
  _space_group_symop_operation_xyz
  'x, y, z'

loop_
  _atom_site_type_symbol
  _atom_site_label
  _atom_site_symmetry_multiplicity
  _atom_site_fract_x
  _atom_site_fract_y
  _atom_site_fract_z
  _atom_site_occupancy
  Ca  Ca1       1.0  0.8587048053741455  0.5143499970436096  0.6709926128387451  1.0000
  Si  Si1       1.0  0.28048601746559143  0.4493376612663269  0.16477914154529572  1.0000
  Si  Si2       1.0  0.43802812695503235  0.02031577005982399  0.7360289692878723  1.0000
  O   O1        1.0  0.3588380813598633  0.30423828959465027  0.8801783919334412  1.0000
  Ti  Ti1       1.0  0.859795093536377  0.9098203778266907  0.27528852224349976  1.0000
  O   O2        1.0  0.655732274055481  0.09536778926849365  0.5336638689041138  1.0000
  O   O3        1.0  0.133709117770195  0.8493738770484924  0.582890510559082  1.0000
  O   O4        1.0  0.06339933723211288  0.6514685153961182  0.08976478129625322  1.0000
  O   O5        1.0  0.622072696685791  0.8930864930152894  0.9462069272994995  1.0000
  O   O6        1.0  0.5849782228469849  0.6019768714904785  0.3345368206501007  1.0000
  O   O7        1.0  0.0958433970808983  0.23843061923980716  0.2914668619632721  1.0000
