data_image132
_chemical_formula_structural       CaSiO2TiSiO4
_chemical_formula_sum              "Ca1 Si2 O6 Ti1"
_cell_length_a       5.228693846741872
_cell_length_b       5.233681957868975
_cell_length_c       6.141841411590576
_cell_angle_alpha    64.80526241614145
_cell_angle_beta     64.78484125981086
_cell_angle_gamma    59.83338132163493

_space_group_name_H-M_alt    "P 1"
_space_group_IT_number       1

loop_
  _space_group_symop_operation_xyz
  'x, y, z'

loop_
  _atom_site_type_symbol
  _atom_site_label
  _atom_site_symmetry_multiplicity
  _atom_site_fract_x
  _atom_site_fract_y
  _atom_site_fract_z
  _atom_site_occupancy
  Ca  Ca1       1.0  0.664493203163147  0.9566686153411864  0.2191626876592636  1.0000
  Si  Si1       1.0  0.425719290971756  0.717781126499176  0.9348472356796265  1.0000
  O   O1        1.0  0.9378893375396729  0.4864215552806854  0.48910558223724354  1.0000
  O   O2        1.0  0.19550167024135595  0.8814665675163268  0.48956349492073054  1.0000
  Ti  Ti1       1.0  0.16459189355373383  0.4568468034267425  0.718799889087677  1.0000
  Si  Si2       1.0  0.9036675095558167  0.194510817527771  0.5036782622337341  1.0000
  O   O3        1.0  0.590027391910553  0.23033341765403748  0.48941817879676813  1.0000
  O   O4        1.0  0.390924870967865  0.42701673507690424  0.9488318562507628  1.0000
  O   O5        1.0  0.13427603244781494  0.031940996646881104  0.9481067061424254  1.0000
  O   O6        1.0  0.739756941795349  0.6827638745307922  0.9482246637344359  1.0000
