data_image366
_chemical_formula_structural       SiO6TiOSiCaO
_chemical_formula_sum              "Si2 O8 Ti1 Ca1"
_cell_length_a       5.265418769020272
_cell_length_b       5.251459324061979
_cell_length_c       8.030640602111816
_cell_angle_alpha    69.81200533049108
_cell_angle_beta     70.0063379073751
_cell_angle_gamma    61.22962798062004

_space_group_name_H-M_alt    "P 1"
_space_group_IT_number       1

loop_
  _space_group_symop_operation_xyz
  'x, y, z'

loop_
  _atom_site_type_symbol
  _atom_site_label
  _atom_site_symmetry_multiplicity
  _atom_site_fract_x
  _atom_site_fract_y
  _atom_site_fract_z
  _atom_site_occupancy
  Si  Si1       1.0  0.07661175727844237  0.32477945089340216  0.17535093426704407  1.0000
  O   O1        1.0  0.48972484469413763  0.5305715203285217  0.8127462863922119  1.0000
  O   O2        1.0  0.22438126802444464  0.9711964130401611  0.2831411361694336  1.0000
  O   O3        1.0  0.8180480599403381  0.207435742020607  0.7580868005752563  1.0000
  O   O4        1.0  0.43936166167259216  0.9007553458213806  0.7103731036186218  1.0000
  O   O5        1.0  0.08863403648138046  0.35199907422065735  0.9689933657646178  1.0000
  O   O6        1.0  0.20623362064361578  0.5170565247535706  0.5367767810821533  1.0000
  Ti  Ti1       1.0  0.1320327818393707  0.2410434037446976  0.7603316307067871  1.0000
  O   O7        1.0  0.7246602773666382  0.4326738119125366  0.3003139793872833  1.0000
  Si  Si2       1.0  0.35592812299728394  0.6035789847373962  0.3221784234046936  1.0000
  Ca  Ca1       1.0  0.829441249370575  0.9990769624710084  0.5630764961242676  1.0000
  O   O8        1.0  0.24176570773124692  0.5065546631813049  0.1974577158689499  1.0000
