data_image501
_chemical_formula_structural       TiOCa2SiO5
_chemical_formula_sum              "Ti1 O6 Ca2 Si1"
_cell_length_a       5.258267968503921
_cell_length_b       5.257400141796217
_cell_length_c       5.261031150817871
_cell_angle_alpha    60.342241989281085
_cell_angle_beta     60.38735605402503
_cell_angle_gamma    60.39437594426075

_space_group_name_H-M_alt    "P 1"
_space_group_IT_number       1

loop_
  _space_group_symop_operation_xyz
  'x, y, z'

loop_
  _atom_site_type_symbol
  _atom_site_label
  _atom_site_symmetry_multiplicity
  _atom_site_fract_x
  _atom_site_fract_y
  _atom_site_fract_z
  _atom_site_occupancy
  Ti  Ti1       1.0  0.4018186032772065  0.5160470008850097  0.3466373383998872  1.0000
  O   O1        1.0  0.6642219424247742  0.3023746907711029  0.03843715414404869  1.0000
  Ca  Ca1       1.0  0.6532592177391051  0.7676804065704346  0.598089635372162  1.0000
  Ca  Ca2       1.0  0.15040072798728946  0.2658296525478363  0.09451016038656235  1.0000
  Si  Si1       1.0  0.9014184474945068  0.016591141000390053  0.8462200164794922  1.0000
  O   O2        1.0  0.18805018067359924  0.20823833346366882  0.6092227697372437  1.0000
  O   O3        1.0  0.09323305636644365  0.7779891490936279  0.13292302191257477  1.0000
  O   O4        1.0  0.7099761366844177  0.2555340826511383  0.5595290660858154  1.0000
  O   O5        1.0  0.13936378061771396  0.7308775782585143  0.6541714072227478  1.0000
  O   O6        1.0  0.6155027747154237  0.8248482942581177  0.08323587477207184  1.0000
