data_image321
_chemical_formula_structural       OTiO2SiCaOSiO3
_chemical_formula_sum              "O7 Ti1 Si2 Ca1"
_cell_length_a       4.645359830289116
_cell_length_b       5.401120428700487
_cell_length_c       5.403926372528076
_cell_angle_alpha    102.83304084613367
_cell_angle_beta     96.98546271002695
_cell_angle_gamma    96.9342640284303

_space_group_name_H-M_alt    "P 1"
_space_group_IT_number       1

loop_
  _space_group_symop_operation_xyz
  'x, y, z'

loop_
  _atom_site_type_symbol
  _atom_site_label
  _atom_site_symmetry_multiplicity
  _atom_site_fract_x
  _atom_site_fract_y
  _atom_site_fract_z
  _atom_site_occupancy
  O   O1        1.0  0.5789758563041687  0.12993764877319336  0.1711317002773285  1.0000
  Ti  Ti1       1.0  0.3769765794277191  0.38837465643882757  0.3597075343132019  1.0000
  O   O2        1.0  0.6533946394920349  0.3309085667133332  0.6632182002067566  1.0000
  O   O3        1.0  0.6140645742416382  0.7193968296051025  0.37565168738365173  1.0000
  Si  Si1       1.0  0.7961077094078064  0.9291807413101196  0.2472562491893768  1.0000
  Ca  Ca1       1.0  0.3778764605522156  0.9975721836090088  0.751739501953125  1.0000
  O   O4        1.0  0.1402788758277893  0.3736094534397126  0.028568651527166367  1.0000
  Si  Si2       1.0  0.9586614966392517  0.5018265843391418  0.8194465041160583  1.0000
  O   O5        1.0  0.8769569993019104  0.7832672595977783  0.9650992155075073  1.0000
  O   O6        1.0  0.17604254186153412  0.5771262645721436  0.6196961998939514  1.0000
  O   O7        1.0  0.10157613456249237  0.08584064245223999  0.4179729223251343  1.0000
