data_image7
_chemical_formula_structural       TiOSiCaSiO3CaO2SiTiO3SiO3
_chemical_formula_sum              "Ti2 O12 Si4 Ca2"
_cell_length_a       5.465292090793559
_cell_length_b       5.747393679106121
_cell_length_c       8.942066192626953
_cell_angle_alpha    88.85632148861679
_cell_angle_beta     93.07496050537266
_cell_angle_gamma    105.22610538405823

_space_group_name_H-M_alt    "P 1"
_space_group_IT_number       1

loop_
  _space_group_symop_operation_xyz
  'x, y, z'

loop_
  _atom_site_type_symbol
  _atom_site_label
  _atom_site_symmetry_multiplicity
  _atom_site_fract_x
  _atom_site_fract_y
  _atom_site_fract_z
  _atom_site_occupancy
  Ti  Ti1       1.0  0.2235841602087021  0.3559715151786805  0.6435157656669617  1.0000
  O   O1        1.0  0.5464305877685547  0.3731087744235993  0.5448702573776245  1.0000
  Si  Si1       1.0  0.31843844056129456  0.773213803768158  0.9215359687805176  1.0000
  Ca  Ca1       1.0  0.6446818113327026  0.9876813292503358  0.6234943866729736  1.0000
  Si  Si2       1.0  0.04414233192801476  0.05637874826788903  0.9390401840209961  1.0000
  O   O2        1.0  0.6754651069641113  0.2943376302719116  0.26110154390335083  1.0000
  O   O3        1.0  0.030086824670433998  0.5171844363212585  0.4971185028553009  1.0000
  O   O4        1.0  0.0022749805357307196  0.7513054013252258  0.9240109920501709  1.0000
  Ca  Ca2       1.0  0.7063615918159485  0.4128125607967377  0.006393132731318474  1.0000
  O   O5        1.0  0.3918638825416565  0.8757398128509521  0.3866899907588959  1.0000
  O   O6        1.0  0.0676610991358757  0.009224004112184048  0.5680289268493652  1.0000
  Si  Si3       1.0  0.11371806263923645  0.8212383985519409  0.4446127116680145  1.0000
  Ti  Ti2       1.0  0.6419306993484497  0.9524703621864319  0.22288267314434052  1.0000
  O   O7        1.0  0.925075888633728  0.10604780912399293  0.08927790075540543  1.0000
  O   O8        1.0  0.39904528856277466  0.6634541749954224  0.7689269185066223  1.0000
  O   O9        1.0  0.4684447944164276  0.7050105929374696  0.0644252821803093  1.0000
  Si  Si4       1.0  0.7319365739822388  0.4559807181358338  0.40940776467323303  1.0000
  O   O10       1.0  0.9428656697273254  0.20924730598926544  0.8060457110404968  1.0000
  O   O11       1.0  0.82950359582901  0.7481641173362732  0.34475404024124146  1.0000
  O   O12       1.0  0.36430737376213074  0.08674400299787521  0.9251468777656555  1.0000
