data_image544
_chemical_formula_structural       O2CaSi
_chemical_formula_sum              "O2 Ca1 Si1"
_cell_length_a       3.3970450614116108
_cell_length_b       3.1466310685750876
_cell_length_c       4.955426216125488
_cell_angle_alpha    90.20475790904608
_cell_angle_beta     90.0632773694404
_cell_angle_gamma    90.00546665566742

_space_group_name_H-M_alt    "P 1"
_space_group_IT_number       1

loop_
  _space_group_symop_operation_xyz
  'x, y, z'

loop_
  _atom_site_type_symbol
  _atom_site_label
  _atom_site_symmetry_multiplicity
  _atom_site_fract_x
  _atom_site_fract_y
  _atom_site_fract_z
  _atom_site_occupancy
  O   O1        1.0  0.2757302522659302  0.7833739519119263  0.40452447533607483  1.0000
  O   O2        1.0  0.777471125125885  0.7814526557922363  0.8752946257591248  1.0000
  Ca  Ca1       1.0  0.2780850827693939  0.28137120604515076  0.03565838560461998  1.0000
  Si  Si1       1.0  0.7775901556015015  0.7782570123672484  0.5328593850135803  1.0000
