data_image226
_chemical_formula_structural       OSiOCa
_chemical_formula_sum              "O2 Si1 Ca1"
_cell_length_a       3.5153097952357624
_cell_length_b       3.5215233643290516
_cell_length_c       6.018109321594238
_cell_angle_alpha    73.05902222035134
_cell_angle_beta     73.03584162902867
_cell_angle_gamma    60.2488891169763

_space_group_name_H-M_alt    "P 1"
_space_group_IT_number       1

loop_
  _space_group_symop_operation_xyz
  'x, y, z'

loop_
  _atom_site_type_symbol
  _atom_site_label
  _atom_site_symmetry_multiplicity
  _atom_site_fract_x
  _atom_site_fract_y
  _atom_site_fract_z
  _atom_site_occupancy
  O   O1        1.0  0.20319046080112463  0.38826161623001093  0.7625511884689331  1.0000
  Si  Si1       1.0  0.10801951587200168  0.2914412915706634  0.0511421412229538  1.0000
  O   O2        1.0  0.011277506127953533  0.19702863693237305  0.3396238684654236  1.0000
  Ca  Ca1       1.0  0.6073841452598572  0.7919204235076904  0.5511086583137512  1.0000
