data_image540
_chemical_formula_structural       Ca2O2SiTiO4
_chemical_formula_sum              "Ca2 O6 Si1 Ti1"
_cell_length_a       5.28350195115207
_cell_length_b       5.284998381577258
_cell_length_c       5.293242454528809
_cell_angle_alpha    119.78391061421964
_cell_angle_beta     90.1957762130079
_cell_angle_gamma    119.89802954871004

_space_group_name_H-M_alt    "P 1"
_space_group_IT_number       1

loop_
  _space_group_symop_operation_xyz
  'x, y, z'

loop_
  _atom_site_type_symbol
  _atom_site_label
  _atom_site_symmetry_multiplicity
  _atom_site_fract_x
  _atom_site_fract_y
  _atom_site_fract_z
  _atom_site_occupancy
  Ca  Ca1       1.0  0.16166070103645325  0.9598829746246338  0.4550034701824188  1.0000
  Ca  Ca2       1.0  0.6590768098831177  0.9508301019668579  0.9436917304992676  1.0000
  O   O1        1.0  0.6423640251159668  0.4543798267841339  0.9086583256721497  1.0000
  O   O2        1.0  0.6725081205368042  0.4016391336917877  0.40483030676841736  1.0000
  Si  Si1       1.0  0.9103652834892273  0.45523554086685175  0.6993854641914367  1.0000
  Ti  Ti1       1.0  0.4103999435901642  0.4552817940711975  0.19954755902290344  1.0000
  O   O3        1.0  0.6977004408836364  0.9769137501716613  0.48834094405174244  1.0000
  O   O4        1.0  0.14818288385868073  0.5094510912895203  0.9936552047729492  1.0000
  O   O5        1.0  0.17841145396232602  0.4568153619766235  0.48993274569511414  1.0000
  O   O6        1.0  0.12284608185291286  0.9338498711585997  0.9098970293998718  1.0000
