data_image56
_chemical_formula_structural       TiO2CaO3Si2O3
_chemical_formula_sum              "Ti1 O8 Ca1 Si2"
_cell_length_a       5.353733891144538
_cell_length_b       5.356971967573953
_cell_length_c       6.510584831237793
_cell_angle_alpha    89.95493008446235
_cell_angle_beta     90.05792251161922
_cell_angle_gamma    119.92630713550264

_space_group_name_H-M_alt    "P 1"
_space_group_IT_number       1

loop_
  _space_group_symop_operation_xyz
  'x, y, z'

loop_
  _atom_site_type_symbol
  _atom_site_label
  _atom_site_symmetry_multiplicity
  _atom_site_fract_x
  _atom_site_fract_y
  _atom_site_fract_z
  _atom_site_occupancy
  Ti  Ti1       1.0  0.6844728589057922  0.6977631449699402  0.20343305170536044  1.0000
  O   O1        1.0  0.01728827692568302  0.3641493022441864  0.7100886702537537  1.0000
  O   O2        1.0  0.013263180851936424  0.8620804548263551  0.017887331545352936  1.0000
  Ca  Ca1       1.0  0.6840426921844482  0.6975564956665039  0.7030937075614929  1.0000
  O   O3        1.0  0.5194694399833679  0.862078845500946  0.01793692819774151  1.0000
  O   O4        1.0  0.5203073620796204  0.36878758668899536  0.017602991312742233  1.0000
  O   O5        1.0  0.35078057646751404  0.0306010153144598  0.6959981322288513  1.0000
  Si  Si1       1.0  0.35109928250312805  0.030780293047428135  0.9431616663932801  1.0000
  Si  Si2       1.0  0.0175293181091547  0.36451539397239685  0.4637333452701569  1.0000
  O   O6        1.0  0.8485370874404907  0.02693832479417324  0.38863480091094976  1.0000
  O   O7        1.0  0.8491292595863342  0.5334250926971436  0.3887405693531037  1.0000
  O   O8        1.0  0.35498756170272827  0.5331200957298279  0.3888003528118134  1.0000
