data_image327
_chemical_formula_structural       SiOCa2TiO5
_chemical_formula_sum              "Si1 O6 Ca2 Ti1"
_cell_length_a       5.492781055371505
_cell_length_b       5.0975299057686065
_cell_length_c       5.368680477142334
_cell_angle_alpha    70.7021628618229
_cell_angle_beta     73.36614757698375
_cell_angle_gamma    80.85073228821581

_space_group_name_H-M_alt    "P 1"
_space_group_IT_number       1

loop_
  _space_group_symop_operation_xyz
  'x, y, z'

loop_
  _atom_site_type_symbol
  _atom_site_label
  _atom_site_symmetry_multiplicity
  _atom_site_fract_x
  _atom_site_fract_y
  _atom_site_fract_z
  _atom_site_occupancy
  Si  Si1       1.0  0.4139015972614289  0.22387257218360898  0.32355266809463507  1.0000
  O   O1        1.0  0.582066535949707  0.9264436364173889  0.5076848268508911  1.0000
  Ca  Ca1       1.0  0.942167639732361  0.7252538800239563  0.2763773798942566  1.0000
  Ca  Ca2       1.0  0.813727080821991  0.11897570639848708  0.6910647749900818  1.0000
  Ti  Ti1       1.0  0.33714455366134644  0.626294195652008  0.6516912579536438  1.0000
  O   O2        1.0  0.20810614526271823  0.976912498474121  0.345946878194809  1.0000
  O   O3        1.0  0.6128261089324951  0.4369507730007171  0.38530996441841125  1.0000
  O   O4        1.0  0.16642522811889648  0.38524749875068665  0.5245153307914734  1.0000
  O   O5        1.0  0.04279065877199174  0.720991313457489  0.8599487543106079  1.0000
  O   O6        1.0  0.48317873477935797  0.3633859157562256  0.9711006879806519  1.0000
