data_image335
_chemical_formula_structural       Si2CaO6TiO2
_chemical_formula_sum              "Si2 Ca1 O8 Ti1"
_cell_length_a       5.090888333324398
_cell_length_b       5.103871110016558
_cell_length_c       6.38914680480957
_cell_angle_alpha    90.58163409521009
_cell_angle_beta     90.40189767123178
_cell_angle_gamma    99.88614068853676

_space_group_name_H-M_alt    "P 1"
_space_group_IT_number       1

loop_
  _space_group_symop_operation_xyz
  'x, y, z'

loop_
  _atom_site_type_symbol
  _atom_site_label
  _atom_site_symmetry_multiplicity
  _atom_site_fract_x
  _atom_site_fract_y
  _atom_site_fract_z
  _atom_site_occupancy
  Si  Si1       1.0  0.5320343971252441  0.7768422365188599  0.6253120303153992  1.0000
  Si  Si2       1.0  0.931294858455658  0.374612182378769  0.12812592089176178  1.0000
  Ca  Ca1       1.0  0.15858642756938934  0.14938263595104218  0.6269080638885498  1.0000
  O   O1        1.0  0.4159316122531891  0.891319751739502  0.8392866253852844  1.0000
  O   O2        1.0  0.4170076847076416  0.892011821269989  0.41230058670043945  1.0000
  O   O3        1.0  0.07949309796094894  0.22129276394844055  0.946341335773468  1.0000
  O   O4        1.0  0.6061692833900452  0.2824064791202545  0.12719208002090454  1.0000
  O   O5        1.0  0.08280392736196518  0.22576060891151428  0.308139830827713  1.0000
  O   O6        1.0  0.8478172421455383  0.751037061214447  0.6290640234947205  1.0000
  Ti  Ti1       1.0  0.3032991588115692  0.0033337313216179614  0.1264229714870453  1.0000
  O   O7        1.0  0.5533352494239807  0.4591340720653534  0.6250928044319153  1.0000
  O   O8        1.0  0.026218507438898087  0.6983551979064941  0.12626299262046814  1.0000
