data_image301
_chemical_formula_structural       SiOCaTiO2CaO3
_chemical_formula_sum              "Si1 O6 Ca2 Ti1"
_cell_length_a       5.261086030071966
_cell_length_b       5.263790842925039
_cell_length_c       5.286006450653076
_cell_angle_alpha    119.91500843582465
_cell_angle_beta     119.8924295518035
_cell_angle_gamma    90.01247286459618

_space_group_name_H-M_alt    "P 1"
_space_group_IT_number       1

loop_
  _space_group_symop_operation_xyz
  'x, y, z'

loop_
  _atom_site_type_symbol
  _atom_site_label
  _atom_site_symmetry_multiplicity
  _atom_site_fract_x
  _atom_site_fract_y
  _atom_site_fract_z
  _atom_site_occupancy
  Si  Si1       1.0  0.12008991092443466  0.5618036389350891  0.5017290711402893  1.0000
  O   O1        1.0  0.8479466438293457  0.7675225138664244  0.5019299983978269  1.0000
  Ca  Ca1       1.0  0.8699654936790466  0.8118465542793274  0.0016616582870483398  1.0000
  Ti  Ti1       1.0  0.6202297806739807  0.06197979301214218  0.5016752481460571  1.0000
  O   O2        1.0  0.91432785987854  0.2894520163536072  0.5019049048423767  1.0000
  O   O3        1.0  0.3592686355113983  0.80099618434906  0.9804372787475586  1.0000
  Ca  Ca2       1.0  0.36991095542907715  0.312022715806961  0.0014713791897519898  1.0000
  O   O4        1.0  0.3922218084335327  0.35591247677803034  0.5013695955276489  1.0000
  O   O5        1.0  0.3256975710391998  0.8341850042343139  0.5018564462661742  1.0000
  O   O6        1.0  0.8809523582458496  0.32297500967979426  0.022954236716031945  1.0000
