data_image286
_chemical_formula_structural       Si2OTiOCaO5
_chemical_formula_sum              "Si2 O7 Ti1 Ca1"
_cell_length_a       4.641806748191683
_cell_length_b       5.398596824171556
_cell_length_c       5.400087356567383
_cell_angle_alpha    102.66159515726628
_cell_angle_beta     96.8791032189517
_cell_angle_gamma    96.93143604934525

_space_group_name_H-M_alt    "P 1"
_space_group_IT_number       1

loop_
  _space_group_symop_operation_xyz
  'x, y, z'

loop_
  _atom_site_type_symbol
  _atom_site_label
  _atom_site_symmetry_multiplicity
  _atom_site_fract_x
  _atom_site_fract_y
  _atom_site_fract_z
  _atom_site_occupancy
  Si  Si1       1.0  0.031773008406162255  0.17366808652877805  0.1870177686214447  1.0000
  Si  Si2       1.0  0.8728349208831787  0.6010029315948486  0.6138465404510498  1.0000
  O   O1        1.0  0.2508203983306885  0.2477508038282394  0.9856566786766052  1.0000
  Ti  Ti1       1.0  0.4536110460758209  0.06220884621143341  0.7256262898445129  1.0000
  O   O2        1.0  0.7276900410652161  0.0018919726135209203  0.03267674520611764  1.0000
  Ca  Ca1       1.0  0.4512435793876648  0.667349636554718  0.12049959599971771  1.0000
  O   O3        1.0  0.9516974687576294  0.4572960138320923  0.3297581374645233  1.0000
  O   O4        1.0  0.6544598937034607  0.8025609254837036  0.5403462052345276  1.0000
  O   O5        1.0  0.1779141128063202  0.7549201846122742  0.7847679257392883  1.0000
  O   O6        1.0  0.6897740960121155  0.3894454836845398  0.7397100925445557  1.0000
  O   O7        1.0  0.21415314078330994  0.04740827903151512  0.39881977438926697  1.0000
