data_image337
_chemical_formula_structural       CaTiSiOCaO5
_chemical_formula_sum              "Ca2 Ti1 Si1 O6"
_cell_length_a       5.272770984084837
_cell_length_b       5.276492021665753
_cell_length_c       5.275790214538574
_cell_angle_alpha    60.28095498476269
_cell_angle_beta     60.281688203085054
_cell_angle_gamma    60.259667006774514

_space_group_name_H-M_alt    "P 1"
_space_group_IT_number       1

loop_
  _space_group_symop_operation_xyz
  'x, y, z'

loop_
  _atom_site_type_symbol
  _atom_site_label
  _atom_site_symmetry_multiplicity
  _atom_site_fract_x
  _atom_site_fract_y
  _atom_site_fract_z
  _atom_site_occupancy
  Ca  Ca1       1.0  0.3818245232105255  0.5419432520866394  0.334976464509964  1.0000
  Ti  Ti1       1.0  0.1312320828437805  0.2909795939922333  0.08306784182786942  1.0000
  Si  Si1       1.0  0.6316015124320984  0.7909958362579346  0.5830330848693848  1.0000
  O   O1        1.0  0.3444961905479431  0.6005269885063171  0.8192155957221985  1.0000
  Ca  Ca2       1.0  0.8803197741508484  0.039539068937301636  0.8311209082603455  1.0000
  O   O2        1.0  0.8709532618522643  0.5035187005996704  0.39295449852943426  1.0000
  O   O3        1.0  0.9181758165359497  0.9818103313446045  0.3473941385746002  1.0000
  O   O4        1.0  0.3916851878166199  0.07863984256982803  0.7735092639923096  1.0000
  O   O5        1.0  0.8203842043876648  0.5535265803337097  0.8722498416900635  1.0000
  O   O6        1.0  0.4422946274280548  0.02841031551361084  0.29433050751686096  1.0000
