data_image87
_chemical_formula_structural       SiTiO2CaSiO6
_chemical_formula_sum              "Si2 Ti1 O8 Ca1"
_cell_length_a       5.108922582377026
_cell_length_b       5.1081527209639175
_cell_length_c       6.835721015930176
_cell_angle_alpha    90.58673628240511
_cell_angle_beta     90.44847269400023
_cell_angle_gamma    64.27834243007229

_space_group_name_H-M_alt    "P 1"
_space_group_IT_number       1

loop_
  _space_group_symop_operation_xyz
  'x, y, z'

loop_
  _atom_site_type_symbol
  _atom_site_label
  _atom_site_symmetry_multiplicity
  _atom_site_fract_x
  _atom_site_fract_y
  _atom_site_fract_z
  _atom_site_occupancy
  Si  Si1       1.0  0.34996896982192993  0.07836537808179855  0.5279439091682434  1.0000
  Ti  Ti1       1.0  0.7056233882904053  0.4329272210597992  0.29759204387664795  1.0000
  O   O1        1.0  0.488992840051651  0.21835047006607056  0.369076669216156  1.0000
  O   O2        1.0  0.9808468818664551  0.7062941789627075  0.8480447530746461  1.0000
  Ca  Ca1       1.0  0.7058712840080261  0.4331307113170624  0.7975361943244934  1.0000
  Si  Si2       1.0  0.06133062765002251  0.787803053855896  0.06729168444871902  1.0000
  O   O3        1.0  0.9162137508392334  0.1441093385219574  0.09033404290676117  1.0000
  O   O4        1.0  0.43069911003112793  0.15972569584846497  0.7471244931221008  1.0000
  O   O5        1.0  0.9941781759262085  0.2223793417215347  0.5046614408493042  1.0000
  O   O6        1.0  0.41755497455596924  0.6438191533088684  0.0908440425992012  1.0000
  O   O7        1.0  0.49519658088684076  0.722862958908081  0.5051454901695251  1.0000
  O   O8        1.0  0.9215254187583923  0.6481123566627502  0.22584673762321475  1.0000
