data_image204
_chemical_formula_structural       TiCaOSi
_chemical_formula_sum              "Ti1 Ca1 O1 Si1"
_cell_length_a       3.9775300826035664
_cell_length_b       4.418604598880616
_cell_length_c       4.421119689941406
_cell_angle_alpha    120.00149408395175
_cell_angle_beta     89.97707355992276
_cell_angle_gamma    89.96918469131715

_space_group_name_H-M_alt    "P 1"
_space_group_IT_number       1

loop_
  _space_group_symop_operation_xyz
  'x, y, z'

loop_
  _atom_site_type_symbol
  _atom_site_label
  _atom_site_symmetry_multiplicity
  _atom_site_fract_x
  _atom_site_fract_y
  _atom_site_fract_z
  _atom_site_occupancy
  Ti  Ti1       1.0  0.5176680684089661  0.22108136117458344  0.8995519280433655  1.0000
  Ca  Ca1       1.0  0.01831304468214512  0.555102050304413  0.5656377673149109  1.0000
  O   O1        1.0  0.01809222623705864  0.2213120311498642  0.899380624294281  1.0000
  Si  Si1       1.0  0.5184977650642395  0.8881918787956239  0.233125388622284  1.0000
